* SPICE NETLIST
***************************************

.SUBCKT MGC_via2_2x1_HH
** N=1 EP=0 IP=0 FDC=0
.ENDS
***************************************
.SUBCKT MGC_via2_2x1_HH_1
** N=1 EP=0 IP=0 FDC=0
.ENDS
***************************************
.SUBCKT MGC_via2_2x1_HH_0
** N=1 EP=0 IP=0 FDC=0
.ENDS
***************************************
.SUBCKT MGC_via1_1x2_VV_1
** N=1 EP=0 IP=0 FDC=0
.ENDS
***************************************
.SUBCKT MGC_via1_1x2_VV_0
** N=1 EP=0 IP=0 FDC=0
.ENDS
***************************************
.SUBCKT MGC_via1_1x2_HV_0
** N=1 EP=0 IP=0 FDC=0
.ENDS
***************************************
.SUBCKT via2_5
** N=1 EP=0 IP=0 FDC=0
.ENDS
***************************************
.SUBCKT MGC_via1_1x2_HV_1
** N=1 EP=0 IP=0 FDC=0
.ENDS
***************************************
.SUBCKT via1_5
** N=1 EP=0 IP=0 FDC=0
.ENDS
***************************************
.SUBCKT via2_7
** N=1 EP=0 IP=0 FDC=0
.ENDS
***************************************
.SUBCKT ICV_1
** N=1 EP=0 IP=2 FDC=0
.ENDS
***************************************
.SUBCKT FILLCELL_X2
** N=4 EP=0 IP=0 FDC=0
*.CALIBRE ISOLATED NETS: VSS VDD
.ENDS
***************************************
.SUBCKT ICV_2
** N=4 EP=0 IP=8 FDC=0
.ENDS
***************************************
.SUBCKT ICV_3
** N=4 EP=0 IP=8 FDC=0
.ENDS
***************************************
.SUBCKT ICV_4
** N=1 EP=0 IP=2 FDC=0
.ENDS
***************************************
.SUBCKT FILLCELL_X4
** N=4 EP=0 IP=0 FDC=0
*.CALIBRE ISOLATED NETS: VSS VDD
.ENDS
***************************************
.SUBCKT ICV_5
** N=4 EP=0 IP=8 FDC=0
.ENDS
***************************************
.SUBCKT MGC_via1_2x1_VH_1
** N=1 EP=0 IP=0 FDC=0
.ENDS
***************************************
.SUBCKT ICV_6
** N=1 EP=0 IP=2 FDC=0
.ENDS
***************************************
.SUBCKT MUX2_X1 A S B VSS VDD Z 7 8
** N=14 EP=8 IP=0 FDC=12
M0 VSS S 9 7 NMOS_VTL L=5e-08 W=2.1e-07 AD=2.94e-14 AS=2.205e-14 PD=7e-07 PS=6.3e-07 $X=145 $Y=90 $D=1
M1 13 A VSS 7 NMOS_VTL L=5e-08 W=2.1e-07 AD=2.94e-14 AS=2.94e-14 PD=7e-07 PS=7e-07 $X=335 $Y=90 $D=1
M2 10 9 13 7 NMOS_VTL L=5e-08 W=2.1e-07 AD=2.94e-14 AS=2.94e-14 PD=7e-07 PS=7e-07 $X=525 $Y=90 $D=1
M3 14 S 10 7 NMOS_VTL L=5e-08 W=2.1e-07 AD=2.94e-14 AS=2.94e-14 PD=7e-07 PS=7e-07 $X=715 $Y=90 $D=1
M4 VSS B 14 7 NMOS_VTL L=5e-08 W=2.1e-07 AD=4.375e-14 AS=2.94e-14 PD=1.11e-06 PS=7e-07 $X=905 $Y=90 $D=1
M5 Z 10 VSS 7 NMOS_VTL L=5e-08 W=4.15e-07 AD=4.3575e-14 AS=4.375e-14 PD=1.04e-06 PS=1.11e-06 $X=1095 $Y=90 $D=1
M6 VDD S 9 8 PMOS_VTL L=5e-08 W=3.15e-07 AD=4.41e-14 AS=3.3075e-14 PD=9.1e-07 PS=8.4e-07 $X=145 $Y=995 $D=0
M7 11 A VDD 8 PMOS_VTL L=5e-08 W=3.15e-07 AD=4.41e-14 AS=4.41e-14 PD=9.1e-07 PS=9.1e-07 $X=335 $Y=995 $D=0
M8 10 S 11 8 PMOS_VTL L=5e-08 W=3.15e-07 AD=4.41e-14 AS=4.41e-14 PD=9.1e-07 PS=9.1e-07 $X=525 $Y=995 $D=0
M9 12 9 10 8 PMOS_VTL L=5e-08 W=3.15e-07 AD=4.41e-14 AS=4.41e-14 PD=9.1e-07 PS=9.1e-07 $X=715 $Y=995 $D=0
M10 VDD B 12 8 PMOS_VTL L=5e-08 W=3.15e-07 AD=6.615e-14 AS=4.41e-14 PD=1.54e-06 PS=9.1e-07 $X=905 $Y=995 $D=0
M11 Z 10 VDD 8 PMOS_VTL L=5e-08 W=6.3e-07 AD=6.615e-14 AS=6.615e-14 PD=1.47e-06 PS=1.54e-06 $X=1095 $Y=680 $D=0
.ENDS
***************************************
.SUBCKT MGC_via1_1x2_VV
** N=1 EP=0 IP=0 FDC=0
.ENDS
***************************************
.SUBCKT FILLCELL_X8
** N=4 EP=0 IP=0 FDC=0
*.CALIBRE ISOLATED NETS: VSS VDD
.ENDS
***************************************
.SUBCKT MGC_via2_2x1_VH_0
** N=1 EP=0 IP=0 FDC=0
.ENDS
***************************************
.SUBCKT ICV_7
** N=4 EP=0 IP=8 FDC=0
.ENDS
***************************************
.SUBCKT ICV_8
** N=1 EP=0 IP=2 FDC=0
.ENDS
***************************************
.SUBCKT MGC_via1_2x1_VH_0
** N=1 EP=0 IP=0 FDC=0
.ENDS
***************************************
.SUBCKT ICV_9
** N=1 EP=0 IP=2 FDC=0
.ENDS
***************************************
.SUBCKT ICV_10
** N=1 EP=0 IP=2 FDC=0
.ENDS
***************************************
.SUBCKT ICV_11
** N=4 EP=0 IP=8 FDC=0
.ENDS
***************************************
.SUBCKT ICV_12
** N=4 EP=0 IP=8 FDC=0
.ENDS
***************************************
.SUBCKT ICV_13
** N=1 EP=0 IP=2 FDC=0
.ENDS
***************************************
.SUBCKT ICV_14
** N=1 EP=0 IP=2 FDC=0
.ENDS
***************************************
.SUBCKT ICV_15
** N=2 EP=0 IP=2 FDC=0
.ENDS
***************************************
.SUBCKT DFF_X1 D CK VSS VDD Q 6 7
** N=22 EP=7 IP=0 FDC=28
M0 VSS 11 8 6 NMOS_VTL L=5e-08 W=2.1e-07 AD=2.1e-14 AS=2.205e-14 PD=7e-07 PS=6.3e-07 $X=160 $Y=180 $D=1
M1 19 10 VSS 6 NMOS_VTL L=5e-08 W=9e-08 AD=1.26e-14 AS=2.1e-14 PD=4.6e-07 PS=7e-07 $X=350 $Y=300 $D=1
M2 9 8 19 6 NMOS_VTL L=5e-08 W=9e-08 AD=2.6e-14 AS=1.26e-14 PD=8.4e-07 PS=4.6e-07 $X=540 $Y=300 $D=1
M3 20 11 9 6 NMOS_VTL L=5e-08 W=2.75e-07 AD=3.85e-14 AS=2.6e-14 PD=8.3e-07 PS=8.4e-07 $X=735 $Y=180 $D=1
M4 VSS D 20 6 NMOS_VTL L=5e-08 W=2.75e-07 AD=3.395e-14 AS=3.85e-14 PD=8.3e-07 PS=8.3e-07 $X=925 $Y=180 $D=1
M5 10 9 VSS 6 NMOS_VTL L=5e-08 W=2.1e-07 AD=2.205e-14 AS=3.395e-14 PD=6.3e-07 PS=8.3e-07 $X=1115 $Y=180 $D=1
M6 VSS CK 11 6 NMOS_VTL L=5e-08 W=2.1e-07 AD=2.94e-14 AS=2.205e-14 PD=7e-07 PS=6.3e-07 $X=1530 $Y=255 $D=1
M7 21 9 VSS 6 NMOS_VTL L=5e-08 W=2.1e-07 AD=2.94e-14 AS=2.94e-14 PD=7e-07 PS=7e-07 $X=1720 $Y=255 $D=1
M8 12 8 21 6 NMOS_VTL L=5e-08 W=2.1e-07 AD=2.1e-14 AS=2.94e-14 PD=7e-07 PS=7e-07 $X=1910 $Y=255 $D=1
M9 22 11 12 6 NMOS_VTL L=5e-08 W=9e-08 AD=1.305e-14 AS=2.1e-14 PD=4.7e-07 PS=7e-07 $X=2100 $Y=300 $D=1
M10 VSS 14 22 6 NMOS_VTL L=5e-08 W=9e-08 AD=2.1e-14 AS=1.305e-14 PD=7e-07 PS=4.7e-07 $X=2295 $Y=300 $D=1
M11 14 12 VSS 6 NMOS_VTL L=5e-08 W=2.1e-07 AD=2.205e-14 AS=2.1e-14 PD=6.3e-07 PS=7e-07 $X=2485 $Y=255 $D=1
M12 VSS 12 QN 6 NMOS_VTL L=5e-08 W=4.15e-07 AD=5.81e-14 AS=4.3575e-14 PD=1.11e-06 PS=1.04e-06 $X=2825 $Y=90 $D=1
M13 Q 14 VSS 6 NMOS_VTL L=5e-08 W=4.15e-07 AD=4.3575e-14 AS=5.81e-14 PD=1.04e-06 PS=1.11e-06 $X=3015 $Y=90 $D=1
M14 VDD 11 8 7 PMOS_VTL L=5e-08 W=3.15e-07 AD=2.835e-14 AS=3.3075e-14 PD=9.1e-07 PS=8.4e-07 $X=160 $Y=785 $D=0
M15 15 10 VDD 7 PMOS_VTL L=5e-08 W=9e-08 AD=1.26e-14 AS=2.835e-14 PD=4.6e-07 PS=9.1e-07 $X=350 $Y=1010 $D=0
M16 9 11 15 7 PMOS_VTL L=5e-08 W=9e-08 AD=3.615e-14 AS=1.26e-14 PD=1.13e-06 PS=4.6e-07 $X=540 $Y=1010 $D=0
M17 16 8 9 7 PMOS_VTL L=5e-08 W=4.2e-07 AD=5.88e-14 AS=3.615e-14 PD=1.12e-06 PS=1.13e-06 $X=735 $Y=765 $D=0
M18 VDD D 16 7 PMOS_VTL L=5e-08 W=4.2e-07 AD=5.145e-14 AS=5.88e-14 PD=1.12e-06 PS=1.12e-06 $X=925 $Y=765 $D=0
M19 10 9 VDD 7 PMOS_VTL L=5e-08 W=3.15e-07 AD=5.67e-14 AS=5.145e-14 PD=9.9e-07 PS=1.12e-06 $X=1115 $Y=870 $D=0
M20 VDD CK 11 7 PMOS_VTL L=5e-08 W=3.15e-07 AD=4.41e-14 AS=3.3075e-14 PD=9.1e-07 PS=8.4e-07 $X=1530 $Y=870 $D=0
M21 17 9 VDD 7 PMOS_VTL L=5e-08 W=3.15e-07 AD=4.41e-14 AS=4.41e-14 PD=9.1e-07 PS=9.1e-07 $X=1720 $Y=870 $D=0
M22 12 11 17 7 PMOS_VTL L=5e-08 W=3.15e-07 AD=2.835e-14 AS=4.41e-14 PD=9.1e-07 PS=9.1e-07 $X=1910 $Y=870 $D=0
M23 18 8 12 7 PMOS_VTL L=5e-08 W=9e-08 AD=1.305e-14 AS=2.835e-14 PD=4.7e-07 PS=9.1e-07 $X=2100 $Y=1095 $D=0
M24 VDD 14 18 7 PMOS_VTL L=5e-08 W=9e-08 AD=2.835e-14 AS=1.305e-14 PD=9.1e-07 PS=4.7e-07 $X=2295 $Y=1095 $D=0
M25 14 12 VDD 7 PMOS_VTL L=5e-08 W=3.15e-07 AD=3.3075e-14 AS=2.835e-14 PD=8.4e-07 PS=9.1e-07 $X=2485 $Y=870 $D=0
M26 VDD 12 QN 7 PMOS_VTL L=5e-08 W=6.3e-07 AD=8.82e-14 AS=6.615e-14 PD=1.54e-06 PS=1.47e-06 $X=2825 $Y=680 $D=0
M27 Q 14 VDD 7 PMOS_VTL L=5e-08 W=6.3e-07 AD=6.615e-14 AS=8.82e-14 PD=1.47e-06 PS=1.54e-06 $X=3015 $Y=680 $D=0
.ENDS
***************************************
.SUBCKT MGC_via2_1x2_VV_0
** N=1 EP=0 IP=0 FDC=0
.ENDS
***************************************
.SUBCKT ICV_16
** N=1 EP=0 IP=2 FDC=0
.ENDS
***************************************
.SUBCKT MGC_via2_1x2_VV_1
** N=1 EP=0 IP=0 FDC=0
.ENDS
***************************************
.SUBCKT ICV_17
** N=1 EP=0 IP=2 FDC=0
.ENDS
***************************************
.SUBCKT ICV_18 1 2 3 4 5 6 7
** N=7 EP=7 IP=11 FDC=28
X1 3 4 1 2 5 6 7 DFF_X1 $T=190 0 0 0 $X=75 $Y=-115
.ENDS
***************************************
.SUBCKT ICV_19
** N=2 EP=0 IP=2 FDC=0
.ENDS
***************************************
.SUBCKT MGC_via2_1x2_VH_0
** N=1 EP=0 IP=0 FDC=0
.ENDS
***************************************
.SUBCKT ICV_20
** N=2 EP=0 IP=2 FDC=0
.ENDS
***************************************
.SUBCKT FILLCELL_X16
** N=4 EP=0 IP=0 FDC=0
*.CALIBRE ISOLATED NETS: VSS VDD
.ENDS
***************************************
.SUBCKT ICV_21
** N=4 EP=0 IP=8 FDC=0
.ENDS
***************************************
.SUBCKT MGC_via2_2x1_VH_1
** N=1 EP=0 IP=0 FDC=0
.ENDS
***************************************
.SUBCKT MGC_via2_1x2_VH_1
** N=1 EP=0 IP=0 FDC=0
.ENDS
***************************************
.SUBCKT AND2_X1 A1 A2 VSS VDD ZN 6 7
** N=9 EP=7 IP=0 FDC=6
M0 9 A1 8 6 NMOS_VTL L=5e-08 W=2.1e-07 AD=2.94e-14 AS=2.205e-14 PD=7e-07 PS=6.3e-07 $X=145 $Y=90 $D=1
M1 VSS A2 9 6 NMOS_VTL L=5e-08 W=2.1e-07 AD=4.375e-14 AS=2.94e-14 PD=1.11e-06 PS=7e-07 $X=335 $Y=90 $D=1
M2 ZN 8 VSS 6 NMOS_VTL L=5e-08 W=4.15e-07 AD=4.3575e-14 AS=4.375e-14 PD=1.04e-06 PS=1.11e-06 $X=525 $Y=90 $D=1
M3 8 A1 VDD 7 PMOS_VTL L=5e-08 W=3.15e-07 AD=4.41e-14 AS=3.3075e-14 PD=9.1e-07 PS=8.4e-07 $X=145 $Y=995 $D=0
M4 VDD A2 8 7 PMOS_VTL L=5e-08 W=3.15e-07 AD=6.615e-14 AS=4.41e-14 PD=1.54e-06 PS=9.1e-07 $X=335 $Y=995 $D=0
M5 ZN 8 VDD 7 PMOS_VTL L=5e-08 W=6.3e-07 AD=6.615e-14 AS=6.615e-14 PD=1.47e-06 PS=1.54e-06 $X=525 $Y=680 $D=0
.ENDS
***************************************
.SUBCKT MGC_via1_2x1_HH
** N=1 EP=0 IP=0 FDC=0
.ENDS
***************************************
.SUBCKT MGC_via1_2x1_HH_0
** N=1 EP=0 IP=0 FDC=0
.ENDS
***************************************
.SUBCKT ICV_22
** N=4 EP=0 IP=8 FDC=0
.ENDS
***************************************
.SUBCKT ICV_23
** N=1 EP=0 IP=2 FDC=0
.ENDS
***************************************
.SUBCKT ICV_24
** N=4 EP=0 IP=8 FDC=0
.ENDS
***************************************
.SUBCKT MGC_AUTO_NDR_MGC_CLK_NDR_1.0w2.0s_via2_single_MA_north
** N=1 EP=0 IP=0 FDC=0
.ENDS
***************************************
.SUBCKT ICV_25
** N=1 EP=0 IP=2 FDC=0
.ENDS
***************************************
.SUBCKT MGC_via1_2x1_HH_1
** N=1 EP=0 IP=0 FDC=0
.ENDS
***************************************
.SUBCKT MGC_via1_2x1_VH
** N=1 EP=0 IP=0 FDC=0
.ENDS
***************************************
.SUBCKT ICV_26
** N=2 EP=0 IP=2 FDC=0
.ENDS
***************************************
.SUBCKT MGC_via1_1x2_HV
** N=1 EP=0 IP=0 FDC=0
.ENDS
***************************************
.SUBCKT NOR4_X1 A4 VDD A3 A2 A1 ZN VSS 8 9
** N=12 EP=9 IP=0 FDC=8
M0 ZN A4 VSS 8 NMOS_VTL L=5e-08 W=4.15e-07 AD=5.81e-14 AS=4.3575e-14 PD=1.11e-06 PS=1.04e-06 $X=145 $Y=90 $D=1
M1 VSS A3 ZN 8 NMOS_VTL L=5e-08 W=4.15e-07 AD=5.81e-14 AS=5.81e-14 PD=1.11e-06 PS=1.11e-06 $X=335 $Y=90 $D=1
M2 ZN A2 VSS 8 NMOS_VTL L=5e-08 W=4.15e-07 AD=5.81e-14 AS=5.81e-14 PD=1.11e-06 PS=1.11e-06 $X=525 $Y=90 $D=1
M3 VSS A1 ZN 8 NMOS_VTL L=5e-08 W=4.15e-07 AD=4.3575e-14 AS=5.81e-14 PD=1.04e-06 PS=1.11e-06 $X=715 $Y=90 $D=1
M4 10 A4 VDD 9 PMOS_VTL L=5e-08 W=6.3e-07 AD=8.82e-14 AS=6.615e-14 PD=1.54e-06 PS=1.47e-06 $X=145 $Y=680 $D=0
M5 11 A3 10 9 PMOS_VTL L=5e-08 W=6.3e-07 AD=8.82e-14 AS=8.82e-14 PD=1.54e-06 PS=1.54e-06 $X=335 $Y=680 $D=0
M6 12 A2 11 9 PMOS_VTL L=5e-08 W=6.3e-07 AD=8.82e-14 AS=8.82e-14 PD=1.54e-06 PS=1.54e-06 $X=525 $Y=680 $D=0
M7 ZN A1 12 9 PMOS_VTL L=5e-08 W=6.3e-07 AD=6.615e-14 AS=8.82e-14 PD=1.47e-06 PS=1.54e-06 $X=715 $Y=680 $D=0
.ENDS
***************************************
.SUBCKT FILLCELL_X32
** N=4 EP=0 IP=0 FDC=0
*.CALIBRE ISOLATED NETS: VSS VDD
.ENDS
***************************************
.SUBCKT FA_X1 CO CI B A VDD VSS S 8 9
** N=21 EP=9 IP=0 FDC=28
M0 VSS 10 CO 8 NMOS_VTL L=5e-08 W=4.15e-07 AD=4.375e-14 AS=4.3575e-14 PD=1.11e-06 PS=1.04e-06 $X=170 $Y=90 $D=1
M1 19 B VSS 8 NMOS_VTL L=5e-08 W=2.1e-07 AD=2.94e-14 AS=4.375e-14 PD=7e-07 PS=1.11e-06 $X=360 $Y=215 $D=1
M2 10 A 19 8 NMOS_VTL L=5e-08 W=2.1e-07 AD=2.94e-14 AS=2.94e-14 PD=7e-07 PS=7e-07 $X=550 $Y=215 $D=1
M3 11 CI 10 8 NMOS_VTL L=5e-08 W=2.1e-07 AD=3.045e-14 AS=2.94e-14 PD=7.1e-07 PS=7e-07 $X=740 $Y=215 $D=1
M4 VSS A 11 8 NMOS_VTL L=5e-08 W=2.1e-07 AD=2.94e-14 AS=3.045e-14 PD=7e-07 PS=7.1e-07 $X=935 $Y=215 $D=1
M5 11 B VSS 8 NMOS_VTL L=5e-08 W=2.1e-07 AD=2.205e-14 AS=2.94e-14 PD=6.3e-07 PS=7e-07 $X=1125 $Y=215 $D=1
M6 13 B VSS 8 NMOS_VTL L=5e-08 W=2.1e-07 AD=2.94e-14 AS=2.205e-14 PD=7e-07 PS=6.3e-07 $X=1465 $Y=90 $D=1
M7 VSS CI 13 8 NMOS_VTL L=5e-08 W=2.1e-07 AD=2.94e-14 AS=2.94e-14 PD=7e-07 PS=7e-07 $X=1655 $Y=90 $D=1
M8 13 A VSS 8 NMOS_VTL L=5e-08 W=2.1e-07 AD=2.94e-14 AS=2.94e-14 PD=7e-07 PS=7e-07 $X=1845 $Y=90 $D=1
M9 15 10 13 8 NMOS_VTL L=5e-08 W=2.1e-07 AD=3.15e-14 AS=2.94e-14 PD=7.2e-07 PS=7e-07 $X=2035 $Y=90 $D=1
M10 20 CI 15 8 NMOS_VTL L=5e-08 W=2.1e-07 AD=2.94e-14 AS=3.15e-14 PD=7e-07 PS=7.2e-07 $X=2235 $Y=90 $D=1
M11 21 B 20 8 NMOS_VTL L=5e-08 W=2.1e-07 AD=2.94e-14 AS=2.94e-14 PD=7e-07 PS=7e-07 $X=2425 $Y=90 $D=1
M12 VSS A 21 8 NMOS_VTL L=5e-08 W=2.1e-07 AD=4.375e-14 AS=2.94e-14 PD=1.11e-06 PS=7e-07 $X=2615 $Y=90 $D=1
M13 S 15 VSS 8 NMOS_VTL L=5e-08 W=4.15e-07 AD=4.3575e-14 AS=4.375e-14 PD=1.04e-06 PS=1.11e-06 $X=2805 $Y=90 $D=1
M14 VDD 10 CO 9 PMOS_VTL L=5e-08 W=6.3e-07 AD=6.615e-14 AS=6.615e-14 PD=1.54e-06 PS=1.47e-06 $X=170 $Y=680 $D=0
M15 16 B VDD 9 PMOS_VTL L=5e-08 W=3.15e-07 AD=4.41e-14 AS=6.615e-14 PD=9.1e-07 PS=1.54e-06 $X=360 $Y=870 $D=0
M16 10 A 16 9 PMOS_VTL L=5e-08 W=3.15e-07 AD=4.41e-14 AS=4.41e-14 PD=9.1e-07 PS=9.1e-07 $X=550 $Y=870 $D=0
M17 12 CI 10 9 PMOS_VTL L=5e-08 W=3.15e-07 AD=4.53e-14 AS=4.41e-14 PD=1.07e-06 PS=9.1e-07 $X=740 $Y=870 $D=0
M18 VDD A 12 9 PMOS_VTL L=5e-08 W=3.15e-07 AD=4.41e-14 AS=4.53e-14 PD=9.1e-07 PS=1.07e-06 $X=935 $Y=945 $D=0
M19 12 B VDD 9 PMOS_VTL L=5e-08 W=3.15e-07 AD=3.3075e-14 AS=4.41e-14 PD=8.4e-07 PS=9.1e-07 $X=1125 $Y=945 $D=0
M20 14 B VDD 9 PMOS_VTL L=5e-08 W=3.15e-07 AD=4.41e-14 AS=3.3075e-14 PD=9.1e-07 PS=8.4e-07 $X=1465 $Y=995 $D=0
M21 VDD CI 14 9 PMOS_VTL L=5e-08 W=3.15e-07 AD=4.41e-14 AS=4.41e-14 PD=9.1e-07 PS=9.1e-07 $X=1655 $Y=995 $D=0
M22 14 A VDD 9 PMOS_VTL L=5e-08 W=3.15e-07 AD=4.41e-14 AS=4.41e-14 PD=9.1e-07 PS=9.1e-07 $X=1845 $Y=995 $D=0
M23 15 10 14 9 PMOS_VTL L=5e-08 W=3.15e-07 AD=4.725e-14 AS=4.41e-14 PD=9.3e-07 PS=9.1e-07 $X=2035 $Y=995 $D=0
M24 17 CI 15 9 PMOS_VTL L=5e-08 W=3.15e-07 AD=4.41e-14 AS=4.725e-14 PD=9.1e-07 PS=9.3e-07 $X=2235 $Y=995 $D=0
M25 18 B 17 9 PMOS_VTL L=5e-08 W=3.15e-07 AD=4.41e-14 AS=4.41e-14 PD=9.1e-07 PS=9.1e-07 $X=2425 $Y=995 $D=0
M26 VDD A 18 9 PMOS_VTL L=5e-08 W=3.15e-07 AD=6.615e-14 AS=4.41e-14 PD=1.54e-06 PS=9.1e-07 $X=2615 $Y=995 $D=0
M27 S 15 VDD 9 PMOS_VTL L=5e-08 W=6.3e-07 AD=6.615e-14 AS=6.615e-14 PD=1.47e-06 PS=1.54e-06 $X=2805 $Y=680 $D=0
.ENDS
***************************************
.SUBCKT ICV_27 1 2 3 4 5 6 7 8 9 10
** N=10 EP=10 IP=14 FDC=56
X0 1 2 3 4 5 9 10 DFF_X1 $T=0 0 0 0 $X=-115 $Y=-115
X1 6 7 3 4 8 9 10 DFF_X1 $T=3230 0 0 0 $X=3115 $Y=-115
.ENDS
***************************************
.SUBCKT ICV_28
** N=2 EP=0 IP=2 FDC=0
.ENDS
***************************************
.SUBCKT ICV_29
** N=4 EP=0 IP=8 FDC=0
.ENDS
***************************************
.SUBCKT INV_X1 A VSS VDD ZN 5 6
** N=6 EP=6 IP=0 FDC=2
M0 ZN A VSS 5 NMOS_VTL L=5e-08 W=4.15e-07 AD=4.3575e-14 AS=4.3575e-14 PD=1.04e-06 PS=1.04e-06 $X=145 $Y=90 $D=1
M1 ZN A VDD 6 PMOS_VTL L=5e-08 W=6.3e-07 AD=6.615e-14 AS=6.615e-14 PD=1.47e-06 PS=1.47e-06 $X=145 $Y=680 $D=0
.ENDS
***************************************
.SUBCKT AOI21_X1 B2 B1 ZN A VSS VDD 7 8
** N=10 EP=8 IP=0 FDC=6
M0 10 B2 VSS 7 NMOS_VTL L=5e-08 W=4.15e-07 AD=5.81e-14 AS=4.3575e-14 PD=1.11e-06 PS=1.04e-06 $X=185 $Y=90 $D=1
M1 ZN B1 10 7 NMOS_VTL L=5e-08 W=4.15e-07 AD=5.81e-14 AS=5.81e-14 PD=1.11e-06 PS=1.11e-06 $X=375 $Y=90 $D=1
M2 VSS A ZN 7 NMOS_VTL L=5e-08 W=4.15e-07 AD=4.3575e-14 AS=5.81e-14 PD=1.04e-06 PS=1.11e-06 $X=565 $Y=90 $D=1
M3 ZN B2 9 8 PMOS_VTL L=5e-08 W=6.3e-07 AD=8.82e-14 AS=6.615e-14 PD=1.54e-06 PS=1.47e-06 $X=185 $Y=680 $D=0
M4 9 B1 ZN 8 PMOS_VTL L=5e-08 W=6.3e-07 AD=8.82e-14 AS=8.82e-14 PD=1.54e-06 PS=1.54e-06 $X=375 $Y=680 $D=0
M5 VDD A 9 8 PMOS_VTL L=5e-08 W=6.3e-07 AD=6.615e-14 AS=8.82e-14 PD=1.47e-06 PS=1.54e-06 $X=565 $Y=680 $D=0
.ENDS
***************************************
.SUBCKT OAI21_X1 B2 B1 ZN A VSS VDD 7 8
** N=10 EP=8 IP=0 FDC=6
M0 ZN B2 9 7 NMOS_VTL L=5e-08 W=4.15e-07 AD=5.81e-14 AS=4.3575e-14 PD=1.11e-06 PS=1.04e-06 $X=170 $Y=90 $D=1
M1 9 B1 ZN 7 NMOS_VTL L=5e-08 W=4.15e-07 AD=5.81e-14 AS=5.81e-14 PD=1.11e-06 PS=1.11e-06 $X=360 $Y=90 $D=1
M2 VSS A 9 7 NMOS_VTL L=5e-08 W=4.15e-07 AD=4.3575e-14 AS=5.81e-14 PD=1.04e-06 PS=1.11e-06 $X=550 $Y=90 $D=1
M3 10 B2 VDD 8 PMOS_VTL L=5e-08 W=6.3e-07 AD=8.82e-14 AS=6.615e-14 PD=1.54e-06 PS=1.47e-06 $X=170 $Y=680 $D=0
M4 ZN B1 10 8 PMOS_VTL L=5e-08 W=6.3e-07 AD=8.82e-14 AS=8.82e-14 PD=1.54e-06 PS=1.54e-06 $X=360 $Y=680 $D=0
M5 VDD A ZN 8 PMOS_VTL L=5e-08 W=6.3e-07 AD=6.615e-14 AS=8.82e-14 PD=1.47e-06 PS=1.54e-06 $X=550 $Y=680 $D=0
.ENDS
***************************************
.SUBCKT CLKGATETST_X8 SE E CK GCK VSS VDD 7 8
** N=23 EP=8 IP=0 FDC=52
M0 9 SE VSS 7 NMOS_VTL L=5e-08 W=2.1e-07 AD=2.94e-14 AS=2.205e-14 PD=7e-07 PS=6.3e-07 $X=170 $Y=90 $D=1
M1 VSS E 9 7 NMOS_VTL L=5e-08 W=2.1e-07 AD=2.205e-14 AS=2.94e-14 PD=6.3e-07 PS=7e-07 $X=360 $Y=90 $D=1
M2 VSS 12 10 7 NMOS_VTL L=5e-08 W=2.1e-07 AD=3.395e-14 AS=2.205e-14 PD=8.3e-07 PS=6.3e-07 $X=700 $Y=90 $D=1
M3 18 9 VSS 7 NMOS_VTL L=5e-08 W=2.75e-07 AD=3.85e-14 AS=3.395e-14 PD=8.3e-07 PS=8.3e-07 $X=890 $Y=90 $D=1
M4 13 12 18 7 NMOS_VTL L=5e-08 W=2.75e-07 AD=3.0125e-14 AS=3.85e-14 PD=8.7e-07 PS=8.3e-07 $X=1080 $Y=90 $D=1
M5 19 10 13 7 NMOS_VTL L=5e-08 W=9e-08 AD=1.26e-14 AS=3.0125e-14 PD=4.6e-07 PS=8.7e-07 $X=1290 $Y=160 $D=1
M6 VSS 11 19 7 NMOS_VTL L=5e-08 W=9e-08 AD=3.58e-14 AS=1.26e-14 PD=1.12e-06 PS=4.6e-07 $X=1480 $Y=160 $D=1
M7 11 13 VSS 7 NMOS_VTL L=5e-08 W=4.15e-07 AD=5.81e-14 AS=3.58e-14 PD=1.11e-06 PS=1.12e-06 $X=1675 $Y=90 $D=1
M8 VSS 13 11 7 NMOS_VTL L=5e-08 W=4.15e-07 AD=4.3575e-14 AS=5.81e-14 PD=1.04e-06 PS=1.11e-06 $X=1865 $Y=90 $D=1
M9 VSS CK 12 7 NMOS_VTL L=5e-08 W=2.1e-07 AD=4.69e-14 AS=3.36e-14 PD=1.14e-06 PS=7.4e-07 $X=2260 $Y=90 $D=1
M10 20 CK VSS 7 NMOS_VTL L=5e-08 W=4.15e-07 AD=5.81e-14 AS=4.69e-14 PD=1.11e-06 PS=1.14e-06 $X=2465 $Y=90 $D=1
M11 14 13 20 7 NMOS_VTL L=5e-08 W=4.15e-07 AD=5.81e-14 AS=5.81e-14 PD=1.11e-06 PS=1.11e-06 $X=2655 $Y=90 $D=1
M12 21 13 14 7 NMOS_VTL L=5e-08 W=4.15e-07 AD=5.81e-14 AS=5.81e-14 PD=1.11e-06 PS=1.11e-06 $X=2845 $Y=90 $D=1
M13 VSS CK 21 7 NMOS_VTL L=5e-08 W=4.15e-07 AD=5.81e-14 AS=5.81e-14 PD=1.11e-06 PS=1.11e-06 $X=3035 $Y=90 $D=1
M14 22 CK VSS 7 NMOS_VTL L=5e-08 W=4.15e-07 AD=5.81e-14 AS=5.81e-14 PD=1.11e-06 PS=1.11e-06 $X=3225 $Y=90 $D=1
M15 14 13 22 7 NMOS_VTL L=5e-08 W=4.15e-07 AD=5.81e-14 AS=5.81e-14 PD=1.11e-06 PS=1.11e-06 $X=3415 $Y=90 $D=1
M16 23 13 14 7 NMOS_VTL L=5e-08 W=4.15e-07 AD=5.81e-14 AS=5.81e-14 PD=1.11e-06 PS=1.11e-06 $X=3605 $Y=90 $D=1
M17 VSS CK 23 7 NMOS_VTL L=5e-08 W=4.15e-07 AD=4.27e-14 AS=5.81e-14 PD=1.11e-06 PS=1.11e-06 $X=3795 $Y=90 $D=1
M18 GCK 14 VSS 7 NMOS_VTL L=5e-08 W=1.95e-07 AD=2.73e-14 AS=4.27e-14 PD=6.7e-07 PS=1.11e-06 $X=3985 $Y=90 $D=1
M19 VSS 14 GCK 7 NMOS_VTL L=5e-08 W=1.95e-07 AD=2.73e-14 AS=2.73e-14 PD=6.7e-07 PS=6.7e-07 $X=4175 $Y=90 $D=1
M20 GCK 14 VSS 7 NMOS_VTL L=5e-08 W=1.95e-07 AD=2.73e-14 AS=2.73e-14 PD=6.7e-07 PS=6.7e-07 $X=4365 $Y=90 $D=1
M21 VSS 14 GCK 7 NMOS_VTL L=5e-08 W=1.95e-07 AD=2.73e-14 AS=2.73e-14 PD=6.7e-07 PS=6.7e-07 $X=4555 $Y=90 $D=1
M22 GCK 14 VSS 7 NMOS_VTL L=5e-08 W=1.95e-07 AD=2.73e-14 AS=2.73e-14 PD=6.7e-07 PS=6.7e-07 $X=4745 $Y=90 $D=1
M23 VSS 14 GCK 7 NMOS_VTL L=5e-08 W=1.95e-07 AD=2.73e-14 AS=2.73e-14 PD=6.7e-07 PS=6.7e-07 $X=4935 $Y=90 $D=1
M24 GCK 14 VSS 7 NMOS_VTL L=5e-08 W=1.95e-07 AD=2.73e-14 AS=2.73e-14 PD=6.7e-07 PS=6.7e-07 $X=5125 $Y=90 $D=1
M25 VSS 14 GCK 7 NMOS_VTL L=5e-08 W=1.95e-07 AD=2.0475e-14 AS=2.73e-14 PD=6e-07 PS=6.7e-07 $X=5315 $Y=90 $D=1
M26 15 SE 9 8 PMOS_VTL L=5e-08 W=3.15e-07 AD=4.41e-14 AS=3.3075e-14 PD=9.1e-07 PS=8.4e-07 $X=170 $Y=995 $D=0
M27 VDD E 15 8 PMOS_VTL L=5e-08 W=3.15e-07 AD=3.3075e-14 AS=4.41e-14 PD=8.4e-07 PS=9.1e-07 $X=360 $Y=995 $D=0
M28 VDD 12 10 8 PMOS_VTL L=5e-08 W=3.15e-07 AD=5.145e-14 AS=3.3075e-14 PD=1.12e-06 PS=8.4e-07 $X=700 $Y=995 $D=0
M29 16 9 VDD 8 PMOS_VTL L=5e-08 W=4.2e-07 AD=5.88e-14 AS=5.145e-14 PD=1.12e-06 PS=1.12e-06 $X=890 $Y=890 $D=0
M30 13 10 16 8 PMOS_VTL L=5e-08 W=4.2e-07 AD=4.245e-14 AS=5.88e-14 PD=1.16e-06 PS=1.12e-06 $X=1080 $Y=890 $D=0
M31 17 12 13 8 PMOS_VTL L=5e-08 W=9e-08 AD=1.26e-14 AS=4.245e-14 PD=4.6e-07 PS=1.16e-06 $X=1290 $Y=1080 $D=0
M32 VDD 11 17 8 PMOS_VTL L=5e-08 W=9e-08 AD=5.085e-14 AS=1.26e-14 PD=1.55e-06 PS=4.6e-07 $X=1480 $Y=1080 $D=0
M33 11 13 VDD 8 PMOS_VTL L=5e-08 W=6.3e-07 AD=8.82e-14 AS=5.085e-14 PD=1.54e-06 PS=1.55e-06 $X=1675 $Y=680 $D=0
M34 VDD 13 11 8 PMOS_VTL L=5e-08 W=6.3e-07 AD=6.615e-14 AS=8.82e-14 PD=1.47e-06 PS=1.54e-06 $X=1865 $Y=680 $D=0
M35 VDD CK 12 8 PMOS_VTL L=5e-08 W=3.15e-07 AD=8.19e-14 AS=5.04e-14 PD=1.57e-06 PS=9.5e-07 $X=2260 $Y=790 $D=0
M36 14 CK VDD 8 PMOS_VTL L=5e-08 W=6.3e-07 AD=8.82e-14 AS=8.19e-14 PD=1.54e-06 PS=1.57e-06 $X=2465 $Y=680 $D=0
M37 VDD 13 14 8 PMOS_VTL L=5e-08 W=6.3e-07 AD=8.82e-14 AS=8.82e-14 PD=1.54e-06 PS=1.54e-06 $X=2655 $Y=680 $D=0
M38 14 13 VDD 8 PMOS_VTL L=5e-08 W=6.3e-07 AD=8.82e-14 AS=8.82e-14 PD=1.54e-06 PS=1.54e-06 $X=2845 $Y=680 $D=0
M39 VDD CK 14 8 PMOS_VTL L=5e-08 W=6.3e-07 AD=8.82e-14 AS=8.82e-14 PD=1.54e-06 PS=1.54e-06 $X=3035 $Y=680 $D=0
M40 14 CK VDD 8 PMOS_VTL L=5e-08 W=6.3e-07 AD=8.82e-14 AS=8.82e-14 PD=1.54e-06 PS=1.54e-06 $X=3225 $Y=680 $D=0
M41 VDD 13 14 8 PMOS_VTL L=5e-08 W=6.3e-07 AD=8.82e-14 AS=8.82e-14 PD=1.54e-06 PS=1.54e-06 $X=3415 $Y=680 $D=0
M42 14 13 VDD 8 PMOS_VTL L=5e-08 W=6.3e-07 AD=8.82e-14 AS=8.82e-14 PD=1.54e-06 PS=1.54e-06 $X=3605 $Y=680 $D=0
M43 VDD CK 14 8 PMOS_VTL L=5e-08 W=6.3e-07 AD=8.82e-14 AS=8.82e-14 PD=1.54e-06 PS=1.54e-06 $X=3795 $Y=680 $D=0
M44 GCK 14 VDD 8 PMOS_VTL L=5e-08 W=6.3e-07 AD=8.82e-14 AS=8.82e-14 PD=1.54e-06 PS=1.54e-06 $X=3985 $Y=680 $D=0
M45 VDD 14 GCK 8 PMOS_VTL L=5e-08 W=6.3e-07 AD=8.82e-14 AS=8.82e-14 PD=1.54e-06 PS=1.54e-06 $X=4175 $Y=680 $D=0
M46 GCK 14 VDD 8 PMOS_VTL L=5e-08 W=6.3e-07 AD=8.82e-14 AS=8.82e-14 PD=1.54e-06 PS=1.54e-06 $X=4365 $Y=680 $D=0
M47 VDD 14 GCK 8 PMOS_VTL L=5e-08 W=6.3e-07 AD=8.82e-14 AS=8.82e-14 PD=1.54e-06 PS=1.54e-06 $X=4555 $Y=680 $D=0
M48 GCK 14 VDD 8 PMOS_VTL L=5e-08 W=6.3e-07 AD=8.82e-14 AS=8.82e-14 PD=1.54e-06 PS=1.54e-06 $X=4745 $Y=680 $D=0
M49 VDD 14 GCK 8 PMOS_VTL L=5e-08 W=6.3e-07 AD=8.82e-14 AS=8.82e-14 PD=1.54e-06 PS=1.54e-06 $X=4935 $Y=680 $D=0
M50 GCK 14 VDD 8 PMOS_VTL L=5e-08 W=6.3e-07 AD=8.82e-14 AS=8.82e-14 PD=1.54e-06 PS=1.54e-06 $X=5125 $Y=680 $D=0
M51 VDD 14 GCK 8 PMOS_VTL L=5e-08 W=6.3e-07 AD=6.615e-14 AS=8.82e-14 PD=1.47e-06 PS=1.54e-06 $X=5315 $Y=680 $D=0
.ENDS
***************************************
.SUBCKT MGC_via2_1x2_VV
** N=1 EP=0 IP=0 FDC=0
.ENDS
***************************************
.SUBCKT ICV_30
** N=1 EP=0 IP=2 FDC=0
.ENDS
***************************************
.SUBCKT XNOR2_X1 VSS A ZN B VDD 6 7
** N=11 EP=7 IP=0 FDC=10
M0 11 A 8 6 NMOS_VTL L=5e-08 W=2.1e-07 AD=2.94e-14 AS=2.205e-14 PD=7e-07 PS=6.3e-07 $X=155 $Y=90 $D=1
M1 VSS B 11 6 NMOS_VTL L=5e-08 W=2.1e-07 AD=4.48e-14 AS=2.94e-14 PD=1.12e-06 PS=7e-07 $X=345 $Y=90 $D=1
M2 9 8 VSS 6 NMOS_VTL L=5e-08 W=4.15e-07 AD=5.81e-14 AS=4.48e-14 PD=1.11e-06 PS=1.12e-06 $X=540 $Y=90 $D=1
M3 ZN A 9 6 NMOS_VTL L=5e-08 W=4.15e-07 AD=5.81e-14 AS=5.81e-14 PD=1.11e-06 PS=1.11e-06 $X=730 $Y=90 $D=1
M4 9 B ZN 6 NMOS_VTL L=5e-08 W=4.15e-07 AD=4.3575e-14 AS=5.81e-14 PD=1.04e-06 PS=1.11e-06 $X=920 $Y=90 $D=1
M5 8 A VDD 7 PMOS_VTL L=5e-08 W=3.15e-07 AD=4.41e-14 AS=3.3075e-14 PD=9.1e-07 PS=8.4e-07 $X=155 $Y=995 $D=0
M6 VDD B 8 7 PMOS_VTL L=5e-08 W=3.15e-07 AD=6.7725e-14 AS=4.41e-14 PD=1.55e-06 PS=9.1e-07 $X=345 $Y=995 $D=0
M7 ZN 8 VDD 7 PMOS_VTL L=5e-08 W=6.3e-07 AD=8.82e-14 AS=6.7725e-14 PD=1.54e-06 PS=1.55e-06 $X=540 $Y=680 $D=0
M8 10 A ZN 7 PMOS_VTL L=5e-08 W=6.3e-07 AD=8.82e-14 AS=8.82e-14 PD=1.54e-06 PS=1.54e-06 $X=730 $Y=680 $D=0
M9 VDD B 10 7 PMOS_VTL L=5e-08 W=6.3e-07 AD=6.615e-14 AS=8.82e-14 PD=1.47e-06 PS=1.54e-06 $X=920 $Y=680 $D=0
.ENDS
***************************************
.SUBCKT ICV_31
** N=1 EP=0 IP=2 FDC=0
.ENDS
***************************************
.SUBCKT NOR2_X1 A2 VDD A1 ZN VSS 6 7
** N=8 EP=7 IP=0 FDC=4
M0 ZN A2 VSS 6 NMOS_VTL L=5e-08 W=4.15e-07 AD=5.81e-14 AS=4.3575e-14 PD=1.11e-06 PS=1.04e-06 $X=160 $Y=90 $D=1
M1 VSS A1 ZN 6 NMOS_VTL L=5e-08 W=4.15e-07 AD=4.3575e-14 AS=5.81e-14 PD=1.04e-06 PS=1.11e-06 $X=350 $Y=90 $D=1
M2 8 A2 VDD 7 PMOS_VTL L=5e-08 W=6.3e-07 AD=8.82e-14 AS=6.615e-14 PD=1.54e-06 PS=1.47e-06 $X=160 $Y=680 $D=0
M3 ZN A1 8 7 PMOS_VTL L=5e-08 W=6.3e-07 AD=6.615e-14 AS=8.82e-14 PD=1.47e-06 PS=1.54e-06 $X=350 $Y=680 $D=0
.ENDS
***************************************
.SUBCKT NAND3_X1 A3 VSS A2 A1 VDD ZN 7 8
** N=10 EP=8 IP=0 FDC=6
M0 9 A3 VSS 7 NMOS_VTL L=5e-08 W=4.15e-07 AD=5.81e-14 AS=4.3575e-14 PD=1.11e-06 PS=1.04e-06 $X=145 $Y=90 $D=1
M1 10 A2 9 7 NMOS_VTL L=5e-08 W=4.15e-07 AD=5.81e-14 AS=5.81e-14 PD=1.11e-06 PS=1.11e-06 $X=335 $Y=90 $D=1
M2 ZN A1 10 7 NMOS_VTL L=5e-08 W=4.15e-07 AD=4.3575e-14 AS=5.81e-14 PD=1.04e-06 PS=1.11e-06 $X=525 $Y=90 $D=1
M3 ZN A3 VDD 8 PMOS_VTL L=5e-08 W=6.3e-07 AD=8.82e-14 AS=6.615e-14 PD=1.54e-06 PS=1.47e-06 $X=145 $Y=680 $D=0
M4 VDD A2 ZN 8 PMOS_VTL L=5e-08 W=6.3e-07 AD=8.82e-14 AS=8.82e-14 PD=1.54e-06 PS=1.54e-06 $X=335 $Y=680 $D=0
M5 ZN A1 VDD 8 PMOS_VTL L=5e-08 W=6.3e-07 AD=6.615e-14 AS=8.82e-14 PD=1.47e-06 PS=1.54e-06 $X=525 $Y=680 $D=0
.ENDS
***************************************
.SUBCKT NAND2_X1 A2 VSS A1 ZN VDD 6 7
** N=8 EP=7 IP=0 FDC=4
M0 8 A2 VSS 6 NMOS_VTL L=5e-08 W=4.15e-07 AD=5.81e-14 AS=4.3575e-14 PD=1.11e-06 PS=1.04e-06 $X=160 $Y=90 $D=1
M1 ZN A1 8 6 NMOS_VTL L=5e-08 W=4.15e-07 AD=4.3575e-14 AS=5.81e-14 PD=1.04e-06 PS=1.11e-06 $X=350 $Y=90 $D=1
M2 ZN A2 VDD 7 PMOS_VTL L=5e-08 W=6.3e-07 AD=8.82e-14 AS=6.615e-14 PD=1.54e-06 PS=1.47e-06 $X=160 $Y=680 $D=0
M3 VDD A1 ZN 7 PMOS_VTL L=5e-08 W=6.3e-07 AD=6.615e-14 AS=8.82e-14 PD=1.47e-06 PS=1.54e-06 $X=350 $Y=680 $D=0
.ENDS
***************************************
.SUBCKT AOI211_X1 C2 C1 B VSS A ZN VDD 8 9
** N=12 EP=9 IP=0 FDC=8
M0 12 C2 VSS 8 NMOS_VTL L=5e-08 W=4.15e-07 AD=5.81e-14 AS=4.3575e-14 PD=1.11e-06 PS=1.04e-06 $X=185 $Y=90 $D=1
M1 ZN C1 12 8 NMOS_VTL L=5e-08 W=4.15e-07 AD=5.81e-14 AS=5.81e-14 PD=1.11e-06 PS=1.11e-06 $X=375 $Y=90 $D=1
M2 VSS B ZN 8 NMOS_VTL L=5e-08 W=4.15e-07 AD=5.81e-14 AS=5.81e-14 PD=1.11e-06 PS=1.11e-06 $X=565 $Y=90 $D=1
M3 ZN A VSS 8 NMOS_VTL L=5e-08 W=4.15e-07 AD=4.3575e-14 AS=5.81e-14 PD=1.04e-06 PS=1.11e-06 $X=755 $Y=90 $D=1
M4 ZN C2 10 9 PMOS_VTL L=5e-08 W=6.3e-07 AD=8.82e-14 AS=6.615e-14 PD=1.54e-06 PS=1.47e-06 $X=185 $Y=680 $D=0
M5 10 C1 ZN 9 PMOS_VTL L=5e-08 W=6.3e-07 AD=8.82e-14 AS=8.82e-14 PD=1.54e-06 PS=1.54e-06 $X=375 $Y=680 $D=0
M6 11 B 10 9 PMOS_VTL L=5e-08 W=6.3e-07 AD=8.82e-14 AS=8.82e-14 PD=1.54e-06 PS=1.54e-06 $X=565 $Y=680 $D=0
M7 VDD A 11 9 PMOS_VTL L=5e-08 W=6.3e-07 AD=6.615e-14 AS=8.82e-14 PD=1.47e-06 PS=1.54e-06 $X=755 $Y=680 $D=0
.ENDS
***************************************
.SUBCKT HA_X1 S B A VSS VDD CO 7 8
** N=14 EP=8 IP=0 FDC=16
M0 13 B VSS 7 NMOS_VTL L=5e-08 W=4.15e-07 AD=5.81e-14 AS=4.3575e-14 PD=1.11e-06 PS=1.04e-06 $X=185 $Y=90 $D=1
M1 S A 13 7 NMOS_VTL L=5e-08 W=4.15e-07 AD=5.81e-14 AS=5.81e-14 PD=1.11e-06 PS=1.11e-06 $X=375 $Y=90 $D=1
M2 VSS 10 S 7 NMOS_VTL L=5e-08 W=4.15e-07 AD=4.48e-14 AS=5.81e-14 PD=1.12e-06 PS=1.11e-06 $X=565 $Y=90 $D=1
M3 10 B VSS 7 NMOS_VTL L=5e-08 W=2.1e-07 AD=2.94e-14 AS=4.48e-14 PD=7e-07 PS=1.12e-06 $X=760 $Y=90 $D=1
M4 VSS A 10 7 NMOS_VTL L=5e-08 W=2.1e-07 AD=2.205e-14 AS=2.94e-14 PD=6.3e-07 PS=7e-07 $X=950 $Y=90 $D=1
M5 14 A 11 7 NMOS_VTL L=5e-08 W=2.1e-07 AD=2.94e-14 AS=2.205e-14 PD=7e-07 PS=6.3e-07 $X=1320 $Y=90 $D=1
M6 VSS B 14 7 NMOS_VTL L=5e-08 W=2.1e-07 AD=4.375e-14 AS=2.94e-14 PD=1.11e-06 PS=7e-07 $X=1510 $Y=90 $D=1
M7 CO 11 VSS 7 NMOS_VTL L=5e-08 W=4.15e-07 AD=4.3575e-14 AS=4.375e-14 PD=1.04e-06 PS=1.11e-06 $X=1700 $Y=90 $D=1
M8 S B 9 8 PMOS_VTL L=5e-08 W=6.3e-07 AD=8.82e-14 AS=6.615e-14 PD=1.54e-06 PS=1.47e-06 $X=185 $Y=680 $D=0
M9 9 A S 8 PMOS_VTL L=5e-08 W=6.3e-07 AD=8.82e-14 AS=8.82e-14 PD=1.54e-06 PS=1.54e-06 $X=375 $Y=680 $D=0
M10 VDD 10 9 8 PMOS_VTL L=5e-08 W=6.3e-07 AD=6.7725e-14 AS=8.82e-14 PD=1.55e-06 PS=1.54e-06 $X=565 $Y=680 $D=0
M11 12 B VDD 8 PMOS_VTL L=5e-08 W=3.15e-07 AD=4.41e-14 AS=6.7725e-14 PD=9.1e-07 PS=1.55e-06 $X=760 $Y=870 $D=0
M12 10 A 12 8 PMOS_VTL L=5e-08 W=3.15e-07 AD=3.3075e-14 AS=4.41e-14 PD=8.4e-07 PS=9.1e-07 $X=950 $Y=870 $D=0
M13 11 A VDD 8 PMOS_VTL L=5e-08 W=3.15e-07 AD=4.41e-14 AS=3.3075e-14 PD=9.1e-07 PS=8.4e-07 $X=1320 $Y=870 $D=0
M14 VDD B 11 8 PMOS_VTL L=5e-08 W=3.15e-07 AD=6.615e-14 AS=4.41e-14 PD=1.54e-06 PS=9.1e-07 $X=1510 $Y=870 $D=0
M15 CO 11 VDD 8 PMOS_VTL L=5e-08 W=6.3e-07 AD=6.615e-14 AS=6.615e-14 PD=1.47e-06 PS=1.54e-06 $X=1700 $Y=680 $D=0
.ENDS
***************************************
.SUBCKT CLKBUF_X3 A VSS VDD Z 5 6
** N=7 EP=6 IP=0 FDC=8
M0 VSS A 7 5 NMOS_VTL L=5e-08 W=1.95e-07 AD=2.73e-14 AS=2.0475e-14 PD=6.7e-07 PS=6e-07 $X=145 $Y=90 $D=1
M1 Z 7 VSS 5 NMOS_VTL L=5e-08 W=1.95e-07 AD=2.73e-14 AS=2.73e-14 PD=6.7e-07 PS=6.7e-07 $X=335 $Y=90 $D=1
M2 VSS 7 Z 5 NMOS_VTL L=5e-08 W=1.95e-07 AD=2.73e-14 AS=2.73e-14 PD=6.7e-07 PS=6.7e-07 $X=525 $Y=90 $D=1
M3 Z 7 VSS 5 NMOS_VTL L=5e-08 W=1.95e-07 AD=2.0475e-14 AS=2.73e-14 PD=6e-07 PS=6.7e-07 $X=715 $Y=90 $D=1
M4 VDD A 7 6 PMOS_VTL L=5e-08 W=6.3e-07 AD=8.82e-14 AS=6.615e-14 PD=1.54e-06 PS=1.47e-06 $X=145 $Y=680 $D=0
M5 Z 7 VDD 6 PMOS_VTL L=5e-08 W=6.3e-07 AD=8.82e-14 AS=8.82e-14 PD=1.54e-06 PS=1.54e-06 $X=335 $Y=680 $D=0
M6 VDD 7 Z 6 PMOS_VTL L=5e-08 W=6.3e-07 AD=8.82e-14 AS=8.82e-14 PD=1.54e-06 PS=1.54e-06 $X=525 $Y=680 $D=0
M7 Z 7 VDD 6 PMOS_VTL L=5e-08 W=6.3e-07 AD=6.615e-14 AS=8.82e-14 PD=1.47e-06 PS=1.54e-06 $X=715 $Y=680 $D=0
.ENDS
***************************************
.SUBCKT ICV_32
** N=2 EP=0 IP=2 FDC=0
.ENDS
***************************************
.SUBCKT via1_7
** N=1 EP=0 IP=0 FDC=0
.ENDS
***************************************
.SUBCKT ICV_33