$ Spice netlist generated by v2lvs
$ v2020.1_25.14    Mon Feb 3 16:40:08 PST 2020
*.BUSDELIMITER [ 

.SUBCKT buffer__parameterized0 clk_CTS_1_PP_0 clk rst en D[0] Q[0] 
Xi_0_2 INV_X1 $PINS ZN=n_0_1 A=D[0] 
Xi_0_1 NOR2_X1 $PINS ZN=n_0_0 A1=Q[0] A2=en 
Xi_0_0 AOI211_X1 $PINS ZN=n_0 A=rst B=n_0_0 C1=n_0_1 C2=en 
XQ_reg[0] DFF_X1 $PINS Q=Q[0] CK=clk_CTS_1_PP_0 D=n_0 
.ENDS

.SUBCKT buffer__parameterized0__0_52 clk_CTS_1_PP_0 clk_CTS_1_PP_8 clk rst en 
+ D[0] Q[0] 
Xi_0_2 INV_X1 $PINS ZN=n_0_1 A=D[0] 
Xi_0_1 NOR2_X1 $PINS ZN=n_0_0 A1=Q[0] A2=en 
Xi_0_0 AOI211_X1 $PINS ZN=n_0 A=rst B=n_0_0 C1=n_0_1 C2=en 
XQ_reg[0] DFF_X1 $PINS Q=Q[0] CK=clk_CTS_1_PP_0 D=n_0 
XCTS_L1_c_tid1_2 CLKBUF_X3 $PINS Z=clk_CTS_1_PP_0 A=clk_CTS_1_PP_8 
.ENDS

.SUBCKT buffer clk_CTS_1_PP_3 clk rst en D[31] D[30] D[29] D[28] D[27] D[26] 
+ D[25] D[24] D[23] D[22] D[21] D[20] D[19] D[18] D[17] D[16] D[15] D[14] D[13] 
+ D[12] D[11] D[10] D[9] D[8] D[7] D[6] D[5] D[4] D[3] D[2] D[1] D[0] Q[31] 
+ Q[30] Q[29] Q[28] Q[27] Q[26] Q[25] Q[24] Q[23] Q[22] Q[21] Q[20] Q[19] Q[18] 
+ Q[17] Q[16] Q[15] Q[14] Q[13] Q[12] Q[11] Q[10] Q[9] Q[8] Q[7] Q[6] Q[5] Q[4] 
+ Q[3] Q[2] Q[1] Q[0] 
Xi_0_33 AND2_X1 $PINS ZN=n_33 A1=n_0_0 A2=D[31] 
Xi_0_32 AND2_X1 $PINS ZN=n_32 A1=n_0_0 A2=D[30] 
Xi_0_31 AND2_X1 $PINS ZN=n_31 A1=n_0_0 A2=D[29] 
Xi_0_30 AND2_X1 $PINS ZN=n_30 A1=n_0_0 A2=D[28] 
Xi_0_29 AND2_X1 $PINS ZN=n_29 A1=n_0_0 A2=D[27] 
Xi_0_28 AND2_X1 $PINS ZN=n_28 A1=n_0_0 A2=D[26] 
Xi_0_27 AND2_X1 $PINS ZN=n_27 A1=n_0_0 A2=D[25] 
Xi_0_26 AND2_X1 $PINS ZN=n_26 A1=n_0_0 A2=D[24] 
Xi_0_25 AND2_X1 $PINS ZN=n_25 A1=n_0_0 A2=D[23] 
Xi_0_24 AND2_X1 $PINS ZN=n_24 A1=n_0_0 A2=D[22] 
Xi_0_23 AND2_X1 $PINS ZN=n_23 A1=n_0_0 A2=D[21] 
Xi_0_22 AND2_X1 $PINS ZN=n_22 A1=n_0_0 A2=D[20] 
Xi_0_21 AND2_X1 $PINS ZN=n_21 A1=n_0_0 A2=D[19] 
Xi_0_20 AND2_X1 $PINS ZN=n_20 A1=n_0_0 A2=D[18] 
Xi_0_19 AND2_X1 $PINS ZN=n_19 A1=n_0_0 A2=D[17] 
Xi_0_18 AND2_X1 $PINS ZN=n_18 A1=n_0_0 A2=D[16] 
Xi_0_17 AND2_X1 $PINS ZN=n_17 A1=n_0_0 A2=D[15] 
Xi_0_16 AND2_X1 $PINS ZN=n_16 A1=n_0_0 A2=D[14] 
Xi_0_15 AND2_X1 $PINS ZN=n_15 A1=n_0_0 A2=D[13] 
Xi_0_14 AND2_X1 $PINS ZN=n_14 A1=n_0_0 A2=D[12] 
Xi_0_13 AND2_X1 $PINS ZN=n_13 A1=n_0_0 A2=D[11] 
Xi_0_12 AND2_X1 $PINS ZN=n_12 A1=n_0_0 A2=D[10] 
Xi_0_11 AND2_X1 $PINS ZN=n_11 A1=n_0_0 A2=D[9] 
Xi_0_10 AND2_X1 $PINS ZN=n_10 A1=n_0_0 A2=D[8] 
Xi_0_9 AND2_X1 $PINS ZN=n_9 A1=n_0_0 A2=D[7] 
Xi_0_8 AND2_X1 $PINS ZN=n_8 A1=n_0_0 A2=D[6] 
Xi_0_7 AND2_X1 $PINS ZN=n_7 A1=n_0_0 A2=D[5] 
Xi_0_6 AND2_X1 $PINS ZN=n_6 A1=n_0_0 A2=D[4] 
Xi_0_5 AND2_X1 $PINS ZN=n_5 A1=n_0_0 A2=D[3] 
Xi_0_4 AND2_X1 $PINS ZN=n_4 A1=n_0_0 A2=D[2] 
Xi_0_3 AND2_X1 $PINS ZN=n_3 A1=n_0_0 A2=D[1] 
Xi_0_2 AND2_X1 $PINS ZN=n_2 A1=n_0_0 A2=D[0] 
Xi_0_1 INV_X1 $PINS ZN=n_0_0 A=rst 
Xi_0_0 OR2_X1 $PINS ZN=n_1 A1=en A2=rst 
XQ_reg[0] DFF_X1 $PINS Q=Q[0] CK=n_0 D=n_2 
XQ_reg[1] DFF_X1 $PINS Q=Q[1] CK=n_0 D=n_3 
XQ_reg[2] DFF_X1 $PINS Q=Q[2] CK=n_0 D=n_4 
XQ_reg[3] DFF_X1 $PINS Q=Q[3] CK=n_0 D=n_5 
XQ_reg[4] DFF_X1 $PINS Q=Q[4] CK=n_0 D=n_6 
XQ_reg[5] DFF_X1 $PINS Q=Q[5] CK=n_0 D=n_7 
XQ_reg[6] DFF_X1 $PINS Q=Q[6] CK=n_0 D=n_8 
XQ_reg[7] DFF_X1 $PINS Q=Q[7] CK=n_0 D=n_9 
XQ_reg[8] DFF_X1 $PINS Q=Q[8] CK=n_0 D=n_10 
XQ_reg[9] DFF_X1 $PINS Q=Q[9] CK=n_0 D=n_11 
XQ_reg[10] DFF_X1 $PINS Q=Q[10] CK=n_0 D=n_12 
XQ_reg[11] DFF_X1 $PINS Q=Q[11] CK=n_0 D=n_13 
XQ_reg[12] DFF_X1 $PINS Q=Q[12] CK=n_0 D=n_14 
XQ_reg[13] DFF_X1 $PINS Q=Q[13] CK=n_0 D=n_15 
XQ_reg[14] DFF_X1 $PINS Q=Q[14] CK=n_0 D=n_16 
XQ_reg[15] DFF_X1 $PINS Q=Q[15] CK=n_0 D=n_17 
XQ_reg[16] DFF_X1 $PINS Q=Q[16] CK=n_0 D=n_18 
XQ_reg[17] DFF_X1 $PINS Q=Q[17] CK=n_0 D=n_19 
XQ_reg[18] DFF_X1 $PINS Q=Q[18] CK=n_0 D=n_20 
XQ_reg[19] DFF_X1 $PINS Q=Q[19] CK=n_0 D=n_21 
XQ_reg[20] DFF_X1 $PINS Q=Q[20] CK=n_0 D=n_22 
XQ_reg[21] DFF_X1 $PINS Q=Q[21] CK=n_0 D=n_23 
XQ_reg[22] DFF_X1 $PINS Q=Q[22] CK=n_0 D=n_24 
XQ_reg[23] DFF_X1 $PINS Q=Q[23] CK=n_0 D=n_25 
XQ_reg[24] DFF_X1 $PINS Q=Q[24] CK=n_0 D=n_26 
XQ_reg[25] DFF_X1 $PINS Q=Q[25] CK=n_0 D=n_27 
XQ_reg[26] DFF_X1 $PINS Q=Q[26] CK=n_0 D=n_28 
XQ_reg[27] DFF_X1 $PINS Q=Q[27] CK=n_0 D=n_29 
XQ_reg[28] DFF_X1 $PINS Q=Q[28] CK=n_0 D=n_30 
XQ_reg[29] DFF_X1 $PINS Q=Q[29] CK=n_0 D=n_31 
XQ_reg[30] DFF_X1 $PINS Q=Q[30] CK=n_0 D=n_32 
XQ_reg[31] DFF_X1 $PINS Q=Q[31] CK=n_0 D=n_33 
Xclk_gate_Q_reg CLKGATETST_X1 $PINS GCK=n_0 CK=n_tid1_46 E=n_1 SE=VSS 
XCTS_L1_tid1__c1_tid1__c7 CLKBUF_X1 $PINS Z=n_tid1_46 A=clk_CTS_1_PP_3 
.ENDS

.SUBCKT datapath__0_43 mant_A[23] mant_A[22] mant_A[21] mant_A[20] mant_A[19] 
+ mant_A[18] mant_A[17] mant_A[16] mant_A[15] mant_A[14] mant_A[13] mant_A[12] 
+ mant_A[11] mant_A[10] mant_A[9] mant_A[8] mant_A[7] mant_A[6] mant_A[5] 
+ mant_A[4] mant_A[3] mant_A[2] mant_A[1] mant_A[0] p_0[31] p_0[30] p_0[29] 
+ p_0[28] p_0[27] p_0[26] p_0[25] p_0[24] p_0[23] p_0[22] p_0[21] p_0[20] 
+ p_0[19] p_0[18] p_0[17] p_0[16] p_0[15] p_0[14] p_0[13] p_0[12] p_0[11] 
+ p_0[10] p_0[9] p_0[8] p_0[7] p_0[6] p_0[5] p_0[4] p_0[3] p_0[2] p_0[1] p_0[0] 
Xi_47 INV_X1 $PINS ZN=n_23 A=mant_A[15] 
Xi_46 INV_X1 $PINS ZN=n_22 A=mant_A[11] 
Xi_45 OR3_X1 $PINS ZN=n_21 A1=mant_A[2] A2=mant_A[1] A3=mant_A[0] 
Xi_44 OR2_X1 $PINS ZN=n_20 A1=n_21 A2=mant_A[3] 
Xi_43 OR2_X1 $PINS ZN=n_19 A1=n_20 A2=mant_A[4] 
Xi_42 OR3_X1 $PINS ZN=n_18 A1=n_19 A2=mant_A[5] A3=mant_A[6] 
Xi_41 OR2_X1 $PINS ZN=n_17 A1=n_18 A2=mant_A[7] 
Xi_40 OR3_X1 $PINS ZN=n_16 A1=n_17 A2=mant_A[8] A3=mant_A[9] 
Xi_39 NOR2_X1 $PINS ZN=n_15 A1=n_16 A2=mant_A[10] 
Xi_38 NAND2_X1 $PINS ZN=n_14 A1=n_15 A2=n_22 
Xi_37 OR2_X1 $PINS ZN=n_13 A1=n_14 A2=mant_A[12] 
Xi_36 NOR2_X1 $PINS ZN=n_12 A1=n_13 A2=mant_A[13] 
Xi_35 NOR3_X1 $PINS ZN=n_11 A1=n_13 A2=mant_A[13] A3=mant_A[14] 
Xi_34 NAND2_X1 $PINS ZN=n_10 A1=n_11 A2=n_23 
Xi_33 OR2_X1 $PINS ZN=n_9 A1=n_10 A2=mant_A[16] 
Xi_32 OR2_X1 $PINS ZN=n_8 A1=n_9 A2=mant_A[17] 
Xi_31 OR3_X1 $PINS ZN=n_7 A1=n_8 A2=mant_A[18] A3=mant_A[19] 
Xi_30 OR3_X1 $PINS ZN=n_6 A1=n_7 A2=mant_A[20] A3=mant_A[21] 
Xi_29 OR3_X1 $PINS ZN=p_0[31] A1=n_6 A2=mant_A[22] A3=mant_A[23] 
Xi_28 OAI21_X1 $PINS ZN=n_5 A=mant_A[23] B1=n_6 B2=mant_A[22] 
Xi_27 AND2_X1 $PINS ZN=p_0[23] A1=p_0[31] A2=n_5 
Xi_26 XOR2_X1 $PINS Z=p_0[22] A=mant_A[22] B=n_6 
Xi_25 OAI21_X1 $PINS ZN=n_4 A=mant_A[21] B1=n_7 B2=mant_A[20] 
Xi_24 AND2_X1 $PINS ZN=p_0[21] A1=n_6 A2=n_4 
Xi_23 XOR2_X1 $PINS Z=p_0[20] A=mant_A[20] B=n_7 
Xi_22 OAI21_X1 $PINS ZN=n_3 A=mant_A[19] B1=n_8 B2=mant_A[18] 
Xi_21 AND2_X1 $PINS ZN=p_0[19] A1=n_7 A2=n_3 
Xi_20 XOR2_X1 $PINS Z=p_0[18] A=mant_A[18] B=n_8 
Xi_19 XOR2_X1 $PINS Z=p_0[17] A=mant_A[17] B=n_9 
Xi_18 XOR2_X1 $PINS Z=p_0[16] A=mant_A[16] B=n_10 
Xi_17 XNOR2_X1 $PINS ZN=p_0[15] A=mant_A[15] B=n_11 
Xi_16 XNOR2_X1 $PINS ZN=p_0[14] A=mant_A[14] B=n_12 
Xi_15 XOR2_X1 $PINS Z=p_0[13] A=mant_A[13] B=n_13 
Xi_14 XOR2_X1 $PINS Z=p_0[12] A=mant_A[12] B=n_14 
Xi_13 XNOR2_X1 $PINS ZN=p_0[11] A=mant_A[11] B=n_15 
Xi_12 XOR2_X1 $PINS Z=p_0[10] A=mant_A[10] B=n_16 
Xi_11 OAI21_X1 $PINS ZN=n_2 A=mant_A[9] B1=n_17 B2=mant_A[8] 
Xi_10 AND2_X1 $PINS ZN=p_0[9] A1=n_16 A2=n_2 
Xi_9 XOR2_X1 $PINS Z=p_0[8] A=mant_A[8] B=n_17 
Xi_8 XOR2_X1 $PINS Z=p_0[7] A=mant_A[7] B=n_18 
Xi_7 OAI21_X1 $PINS ZN=n_1 A=mant_A[6] B1=n_19 B2=mant_A[5] 
Xi_6 AND2_X1 $PINS ZN=p_0[6] A1=n_18 A2=n_1 
Xi_5 XOR2_X1 $PINS Z=p_0[5] A=mant_A[5] B=n_19 
Xi_4 XOR2_X1 $PINS Z=p_0[4] A=mant_A[4] B=n_20 
Xi_3 XOR2_X1 $PINS Z=p_0[3] A=mant_A[3] B=n_21 
Xi_2 OAI21_X1 $PINS ZN=n_0 A=mant_A[2] B1=mant_A[1] B2=mant_A[0] 
Xi_1 AND2_X1 $PINS ZN=p_0[2] A1=n_21 A2=n_0 
Xi_0 XOR2_X1 $PINS Z=p_0[1] A=mant_A[1] B=mant_A[0] 
.ENDS

.SUBCKT datapath__0_38 p_0[21] p_0[20] p_0[19] p_0[18] p_0[17] p_0[16] p_0[15] 
+ p_0[14] p_0[13] p_0[12] p_0[11] p_0[10] p_0[9] p_0[8] p_0[7] p_0[6] p_0[5] 
+ p_0[4] p_0[3] p_0[2] p_0[1] p_0[0] p_1[10] p_1[9] p_1[8] p_1[7] p_1[6] p_1[5] 
+ p_1[4] p_1[3] p_1[2] p_1[1] p_1[0] 
Xi_4 HA_X1 $PINS CO=n_3 S=spc__n13 A=p_0[4] B=n_2 
Xi_3 HA_X1 $PINS CO=n_2 S=p_1[3] A=p_0[3] B=n_1 
Xi_2 HA_X1 $PINS CO=n_1 S=drc_ipo_n10 A=p_0[2] B=n_0 
Xi_1 HA_X1 $PINS CO=n_0 S=drc_ipo_n12 A=p_0[1] B=p_0[11] 
Xi_0 INV_X1 $PINS ZN=p_1[0] A=p_0[11] 
Xdrc_ipo_c5 CLKBUF_X1 $PINS Z=p_1[2] A=drc_ipo_n10 
Xdrc_ipo_c6 CLKBUF_X1 $PINS Z=p_1[1] A=drc_ipo_n12 
Xspc__c7 CLKBUF_X1 $PINS Z=p_1[4] A=spc__n13 
.ENDS

.SUBCKT datapath__0_25 p_0 exp_Sum[7] exp_Sum[6] exp_Sum[5] exp_Sum[4] 
+ exp_Sum[3] exp_Sum[2] exp_Sum[1] exp_Sum[0] p_1[21] p_1[20] p_1[19] p_1[18] 
+ p_1[17] p_1[16] p_1[15] p_1[14] p_1[13] p_1[12] p_1[11] p_1[10] p_1[9] p_1[8] 
+ p_1[7] p_1[6] p_1[5] p_1[4] p_1[3] p_1[2] p_1[1] p_1[0] 
Xi_14 INV_X1 $PINS ZN=n_17 A=exp_Sum[4] 
Xi_13 INV_X1 $PINS ZN=n_14 A=exp_Sum[3] 
Xi_12 INV_X1 $PINS ZN=n_13 A=exp_Sum[2] 
Xi_11 INV_X1 $PINS ZN=n_10 A=exp_Sum[1] 
Xi_10 INV_X1 $PINS ZN=n_9 A=exp_Sum[0] 
Xi_9 NOR3_X1 $PINS ZN=p_0 A1=exp_Sum[7] A2=exp_Sum[6] A3=n_3 
Xi_8 NAND2_X1 $PINS ZN=n_6 A1=n_9 A2=p_1[11] 
Xi_7 NAND2_X1 $PINS ZN=n_5 A1=n_10 A2=p_1[1] 
Xi_6 OAI21_X1 $PINS ZN=n_4 A=n_5 B1=n_10 B2=p_1[1] 
Xi_5 NAND2_X1 $PINS ZN=n_8 A1=n_13 A2=p_1[2] 
Xi_4 OAI21_X1 $PINS ZN=n_7 A=n_8 B1=n_13 B2=p_1[2] 
Xi_3 NAND2_X1 $PINS ZN=n_12 A1=n_14 A2=p_1[3] 
Xi_2 OAI21_X1 $PINS ZN=n_11 A=n_12 B1=n_14 B2=p_1[3] 
Xi_1 NAND2_X1 $PINS ZN=n_16 A1=n_17 A2=p_1[4] 
Xi_0 OAI21_X1 $PINS ZN=n_15 A=n_16 B1=n_17 B2=p_1[4] 
Xi_22 FA_X1 $PINS CO=n_3 A=exp_Sum[5] B=n_16 CI=n_2 
Xi_21 FA_X1 $PINS CO=n_2 A=n_12 B=n_15 CI=n_1 
Xi_20 FA_X1 $PINS CO=n_1 A=n_8 B=n_11 CI=n_0 
Xi_19 FA_X1 $PINS CO=n_0 A=n_5 B=n_7 CI=n_18 
Xi_18 HA_X1 $PINS CO=n_18 A=n_6 B=n_4 
.ENDS

.SUBCKT count_leading_zeros valueIn[22] valueIn[21] valueIn[20] valueIn[19] 
+ valueIn[18] valueIn[17] valueIn[16] valueIn[15] valueIn[14] valueIn[13] 
+ valueIn[12] valueIn[11] valueIn[10] valueIn[9] valueIn[8] valueIn[7] 
+ valueIn[6] valueIn[5] valueIn[4] valueIn[3] valueIn[2] valueIn[1] valueIn[0] 
+ result[4] result[3] result[2] result[1] result[0] 
Xi_0_45 NOR4_X1 $PINS ZN=n_0_29 A1=valueIn[14] A2=valueIn[13] A3=valueIn[12] 
+ A4=valueIn[11] 
Xi_0_44 OR2_X1 $PINS ZN=n_0_28 A1=valueIn[6] A2=valueIn[5] 
Xi_0_43 NOR2_X1 $PINS ZN=n_0_26 A1=valueIn[10] A2=valueIn[9] 
Xi_0_42 NOR2_X1 $PINS ZN=n_0_25 A1=valueIn[8] A2=valueIn[7] 
Xi_0_41 NOR4_X1 $PINS ZN=n_0_24 A1=valueIn[18] A2=valueIn[17] A3=valueIn[16] 
+ A4=valueIn[15] 
Xi_0_40 NOR4_X1 $PINS ZN=n_0_23 A1=valueIn[22] A2=valueIn[21] A3=valueIn[20] 
+ A4=valueIn[19] 
Xi_0_39 INV_X1 $PINS ZN=n_0_21 A=n_0_23 
Xi_0_38 NOR3_X1 $PINS ZN=n_0_20 A1=valueIn[3] A2=n_0_28 A3=valueIn[4] 
Xi_0_37 NAND2_X1 $PINS ZN=n_0_19 A1=n_0_26 A2=n_0_25 
Xi_0_36 OAI21_X1 $PINS ZN=n_0_18 A=n_0_29 B1=n_0_20 B2=n_0_19 
Xi_0_35 AOI21_X1 $PINS ZN=result[2] A=n_0_21 B1=n_0_24 B2=n_0_18 
Xi_0_34 INV_X1 $PINS ZN=n_0_40 A=valueIn[21] 
Xi_0_33 INV_X1 $PINS ZN=n_0_39 A=valueIn[20] 
Xi_0_32 INV_X1 $PINS ZN=n_0_38 A=valueIn[17] 
Xi_0_31 INV_X1 $PINS ZN=n_0_37 A=valueIn[16] 
Xi_0_30 INV_X1 $PINS ZN=n_0_36 A=valueIn[13] 
Xi_0_29 INV_X1 $PINS ZN=n_0_35 A=valueIn[12] 
Xi_0_28 INV_X1 $PINS ZN=n_0_34 A=valueIn[9] 
Xi_0_27 INV_X1 $PINS ZN=n_0_33 A=valueIn[8] 
Xi_0_26 INV_X1 $PINS ZN=n_0_32 A=valueIn[5] 
Xi_0_25 INV_X1 $PINS ZN=n_0_31 A=valueIn[4] 
Xi_0_24 INV_X1 $PINS ZN=n_0_30 A=valueIn[1] 
Xi_0_23 NAND2_X1 $PINS ZN=n_0_27 A1=n_0_23 A2=n_0_24 
Xi_0_22 NAND3_X1 $PINS ZN=n_0_22 A1=n_0_29 A2=n_0_26 A3=n_0_25 
Xi_0_21 NOR2_X1 $PINS ZN=result[4] A1=n_0_27 A2=n_0_22 
Xi_0_20 AND3_X1 $PINS ZN=result[3] A1=n_0_22 A2=n_0_24 A3=n_0_23 
Xi_0_19 NOR2_X1 $PINS ZN=n_0_17 A1=valueIn[2] A2=valueIn[1] 
Xi_0_18 NOR3_X1 $PINS ZN=n_0_16 A1=valueIn[4] A2=valueIn[3] A3=n_0_17 
Xi_0_17 OAI21_X1 $PINS ZN=n_0_15 A=n_0_25 B1=n_0_16 B2=n_0_28 
Xi_0_16 AOI211_X1 $PINS ZN=n_0_14 A=valueIn[12] B=valueIn[11] C1=n_0_15 
+ C2=n_0_26 
Xi_0_15 NOR3_X1 $PINS ZN=n_0_13 A1=valueIn[14] A2=valueIn[13] A3=n_0_14 
Xi_0_14 NOR3_X1 $PINS ZN=n_0_12 A1=valueIn[16] A2=valueIn[15] A3=n_0_13 
Xi_0_13 NOR3_X1 $PINS ZN=n_0_11 A1=valueIn[18] A2=valueIn[17] A3=n_0_12 
Xi_0_12 NOR3_X1 $PINS ZN=n_0_10 A1=valueIn[20] A2=valueIn[19] A3=n_0_11 
Xi_0_11 NOR3_X1 $PINS ZN=result[1] A1=valueIn[22] A2=valueIn[21] A3=n_0_10 
Xi_0_10 AOI21_X1 $PINS ZN=n_0_9 A=valueIn[2] B1=n_0_30 B2=valueIn[0] 
Xi_0_9 OAI21_X1 $PINS ZN=n_0_8 A=n_0_31 B1=valueIn[3] B2=n_0_9 
Xi_0_8 AOI21_X1 $PINS ZN=n_0_7 A=valueIn[6] B1=n_0_32 B2=n_0_8 
Xi_0_7 OAI21_X1 $PINS ZN=n_0_6 A=n_0_33 B1=valueIn[7] B2=n_0_7 
Xi_0_6 AOI21_X1 $PINS ZN=n_0_5 A=valueIn[10] B1=n_0_34 B2=n_0_6 
Xi_0_5 OAI21_X1 $PINS ZN=n_0_4 A=n_0_35 B1=valueIn[11] B2=n_0_5 
Xi_0_4 AOI21_X1 $PINS ZN=n_0_3 A=valueIn[14] B1=n_0_36 B2=n_0_4 
Xi_0_3 OAI21_X1 $PINS ZN=n_0_2 A=n_0_37 B1=valueIn[15] B2=n_0_3 
Xi_0_2 AOI21_X1 $PINS ZN=n_0_1 A=valueIn[18] B1=n_0_38 B2=n_0_2 
Xi_0_1 OAI21_X1 $PINS ZN=n_0_0 A=n_0_39 B1=valueIn[19] B2=n_0_1 
Xi_0_0 AOI21_X1 $PINS ZN=result[0] A=valueIn[22] B1=n_0_40 B2=n_0_0 
.ENDS

.SUBCKT CLA_4bit a[3] a[2] a[1] a[0] b[3] b[2] b[1] b[0] cin sum[3] sum[2] 
+ sum[1] sum[0] cout 
Xi_0_0 XOR2_X1 $PINS Z=sum[0] A=a[3] B=cin 
.ENDS

.SUBCKT CLA_4bit__0_114 a[3] a[2] a[1] a[0] b[3] b[2] b[1] b[0] cin sum[3] 
+ sum[2] sum[1] sum[0] cout 
Xi_0_14 XOR2_X1 $PINS Z=n_0_9 A=b[0] B=a[0] 
Xi_0_13 AOI22_X1 $PINS ZN=n_0_8 A1=b[0] A2=a[0] B1=cin B2=n_0_9 
Xi_0_12 INV_X1 $PINS ZN=n_0_7 A=n_0_8 
Xi_0_11 XOR2_X1 $PINS Z=n_0_6 A=b[1] B=a[1] 
Xi_0_10 AOI22_X1 $PINS ZN=n_0_5 A1=b[1] A2=a[1] B1=n_0_7 B2=n_0_6 
Xi_0_9 INV_X1 $PINS ZN=n_0_4 A=n_0_5 
Xi_0_8 XOR2_X1 $PINS Z=n_0_3 A=b[2] B=a[2] 
Xi_0_7 AOI22_X1 $PINS ZN=n_0_2 A1=b[2] A2=a[2] B1=n_0_4 B2=n_0_3 
Xi_0_6 NAND2_X1 $PINS ZN=n_0_1 A1=b[3] A2=a[3] 
Xi_0_5 OAI21_X1 $PINS ZN=n_0_0 A=n_0_1 B1=b[3] B2=a[3] 
Xi_0_4 XOR2_X1 $PINS Z=sum[3] A=n_0_2 B=n_0_0 
Xi_0_3 XNOR2_X1 $PINS ZN=sum[2] A=n_0_5 B=n_0_3 
Xi_0_2 XNOR2_X1 $PINS ZN=sum[1] A=n_0_8 B=n_0_6 
Xi_0_1 XOR2_X1 $PINS Z=sum[0] A=cin B=n_0_9 
Xi_0_0 OAI21_X1 $PINS ZN=cout A=n_0_1 B1=n_0_2 B2=n_0_0 
.ENDS

.SUBCKT CLA_4bit__0_106 a[3] a[2] a[1] a[0] b[3] b[2] b[1] b[0] cin sum[3] 
+ sum[2] sum[1] sum[0] cout 
Xi_0_14 XOR2_X1 $PINS Z=n_0_9 A=b[0] B=a[0] 
Xi_0_13 AOI22_X1 $PINS ZN=n_0_8 A1=b[0] A2=a[0] B1=cin B2=n_0_9 
Xi_0_12 INV_X1 $PINS ZN=n_0_7 A=n_0_8 
Xi_0_11 XOR2_X1 $PINS Z=n_0_6 A=b[1] B=a[1] 
Xi_0_10 AOI22_X1 $PINS ZN=n_0_5 A1=b[1] A2=a[1] B1=n_0_7 B2=n_0_6 
Xi_0_9 INV_X1 $PINS ZN=n_0_4 A=n_0_5 
Xi_0_8 XOR2_X1 $PINS Z=n_0_3 A=b[2] B=a[2] 
Xi_0_7 AOI22_X1 $PINS ZN=n_0_2 A1=b[2] A2=a[2] B1=n_0_4 B2=n_0_3 
Xi_0_6 NAND2_X1 $PINS ZN=n_0_1 A1=b[3] A2=a[3] 
Xi_0_5 OAI21_X1 $PINS ZN=n_0_0 A=n_0_1 B1=b[3] B2=a[3] 
Xi_0_4 XOR2_X1 $PINS Z=sum[3] A=n_0_2 B=n_0_0 
Xi_0_3 XNOR2_X1 $PINS ZN=sum[2] A=n_0_5 B=n_0_3 
Xi_0_2 XNOR2_X1 $PINS ZN=sum[1] A=n_0_8 B=n_0_6 
Xi_0_1 XOR2_X1 $PINS Z=sum[0] A=cin B=n_0_9 
Xi_0_0 OAI21_X1 $PINS ZN=cout A=n_0_1 B1=n_0_2 B2=n_0_0 
.ENDS

.SUBCKT CLA_4bit__0_98 a[3] a[2] a[1] a[0] b[3] b[2] b[1] b[0] cin sum[3] 
+ sum[2] sum[1] sum[0] cout 
Xi_0_14 XOR2_X1 $PINS Z=n_0_9 A=b[0] B=a[0] 
Xi_0_13 AOI22_X1 $PINS ZN=n_0_8 A1=b[0] A2=a[0] B1=cin B2=n_0_9 
Xi_0_12 INV_X1 $PINS ZN=n_0_7 A=n_0_8 
Xi_0_11 XOR2_X1 $PINS Z=n_0_6 A=b[1] B=a[1] 
Xi_0_10 AOI22_X1 $PINS ZN=n_0_5 A1=b[1] A2=a[1] B1=n_0_7 B2=n_0_6 
Xi_0_9 INV_X1 $PINS ZN=n_0_4 A=n_0_5 
Xi_0_8 XOR2_X1 $PINS Z=n_0_3 A=b[2] B=a[2] 
Xi_0_7 AOI22_X1 $PINS ZN=n_0_2 A1=b[2] A2=a[2] B1=n_0_4 B2=n_0_3 
Xi_0_6 NAND2_X1 $PINS ZN=n_0_1 A1=b[3] A2=a[3] 
Xi_0_5 OAI21_X1 $PINS ZN=n_0_0 A=n_0_1 B1=b[3] B2=a[3] 
Xi_0_4 XOR2_X1 $PINS Z=sum[3] A=n_0_2 B=n_0_0 
Xi_0_3 XNOR2_X1 $PINS ZN=sum[2] A=n_0_5 B=n_0_3 
Xi_0_2 XNOR2_X1 $PINS ZN=sum[1] A=n_0_8 B=n_0_6 
Xi_0_1 XOR2_X1 $PINS Z=sum[0] A=cin B=n_0_9 
Xi_0_0 OAI21_X1 $PINS ZN=cout A=n_0_1 B1=n_0_2 B2=n_0_0 
.ENDS

.SUBCKT CLA_4bit__0_90 a[3] a[2] a[1] a[0] b[3] b[2] b[1] b[0] cin sum[3] 
+ sum[2] sum[1] sum[0] cout 
Xi_0_14 XOR2_X1 $PINS Z=n_0_9 A=b[0] B=a[0] 
Xi_0_13 AOI22_X1 $PINS ZN=n_0_8 A1=b[0] A2=a[0] B1=cin B2=n_0_9 
Xi_0_12 INV_X1 $PINS ZN=n_0_7 A=n_0_8 
Xi_0_11 XOR2_X1 $PINS Z=n_0_6 A=b[1] B=a[1] 
Xi_0_10 AOI22_X1 $PINS ZN=n_0_5 A1=b[1] A2=a[1] B1=n_0_7 B2=n_0_6 
Xi_0_9 INV_X1 $PINS ZN=n_0_4 A=n_0_5 
Xi_0_8 XOR2_X1 $PINS Z=n_0_3 A=b[2] B=a[2] 
Xi_0_7 AOI22_X1 $PINS ZN=n_0_2 A1=b[2] A2=a[2] B1=n_0_4 B2=n_0_3 
Xi_0_6 NAND2_X1 $PINS ZN=n_0_1 A1=b[3] A2=a[3] 
Xi_0_5 OAI21_X1 $PINS ZN=n_0_0 A=n_0_1 B1=b[3] B2=a[3] 
Xi_0_4 XOR2_X1 $PINS Z=sum[3] A=n_0_2 B=n_0_0 
Xi_0_3 XNOR2_X1 $PINS ZN=sum[2] A=n_0_5 B=n_0_3 
Xi_0_2 XNOR2_X1 $PINS ZN=sum[1] A=n_0_8 B=n_0_6 
Xi_0_1 XOR2_X1 $PINS Z=sum[0] A=cin B=n_0_9 
Xi_0_0 OAI21_X1 $PINS ZN=cout A=n_0_1 B1=n_0_2 B2=n_0_0 
.ENDS

.SUBCKT CLA_4bit__0_82 a[3] a[2] a[1] a[0] b[3] b[2] b[1] b[0] cin sum[3] 
+ sum[2] sum[1] sum[0] cout 
Xi_0_14 XOR2_X1 $PINS Z=n_0_9 A=b[0] B=a[0] 
Xi_0_13 AOI22_X1 $PINS ZN=n_0_8 A1=b[0] A2=a[0] B1=cin B2=n_0_9 
Xi_0_12 INV_X1 $PINS ZN=n_0_7 A=n_0_8 
Xi_0_11 XOR2_X1 $PINS Z=n_0_6 A=b[1] B=a[1] 
Xi_0_10 AOI22_X1 $PINS ZN=n_0_5 A1=b[1] A2=a[1] B1=n_0_7 B2=n_0_6 
Xi_0_9 INV_X1 $PINS ZN=n_0_4 A=n_0_5 
Xi_0_8 XOR2_X1 $PINS Z=n_0_3 A=b[2] B=a[2] 
Xi_0_7 AOI22_X1 $PINS ZN=n_0_2 A1=b[2] A2=a[2] B1=n_0_4 B2=n_0_3 
Xi_0_6 NAND2_X1 $PINS ZN=n_0_1 A1=b[3] A2=a[3] 
Xi_0_5 OAI21_X1 $PINS ZN=n_0_0 A=n_0_1 B1=b[3] B2=a[3] 
Xi_0_4 XOR2_X1 $PINS Z=sum[3] A=n_0_2 B=n_0_0 
Xi_0_3 XNOR2_X1 $PINS ZN=sum[2] A=n_0_5 B=n_0_3 
Xi_0_2 XNOR2_X1 $PINS ZN=sum[1] A=n_0_8 B=n_0_6 
Xi_0_1 XOR2_X1 $PINS Z=sum[0] A=cin B=n_0_9 
Xi_0_0 OAI21_X1 $PINS ZN=cout A=n_0_1 B1=n_0_2 B2=n_0_0 
.ENDS

.SUBCKT CLA_4bit__0_66 a[3] a[2] a[1] a[0] b[3] b[2] b[1] b[0] cin sum[3] 
+ sum[2] sum[1] sum[0] cout 
Xi_0_16 NOR2_X1 $PINS ZN=n_0_11 A1=b[3] A2=a[3] 
Xi_0_15 NAND2_X1 $PINS ZN=n_0_10 A1=b[3] A2=a[3] 
Xi_0_14 XOR2_X1 $PINS Z=n_0_9 A=b[3] B=a[3] 
Xi_0_13 NOR2_X1 $PINS ZN=n_0_8 A1=b[1] A2=a[1] 
Xi_0_12 NAND2_X1 $PINS ZN=n_0_7 A1=b[1] A2=a[1] 
Xi_0_11 NAND2_X1 $PINS ZN=n_0_6 A1=b[0] A2=a[0] 
Xi_0_10 OAI21_X1 $PINS ZN=n_0_5 A=n_0_7 B1=n_0_8 B2=n_0_6 
Xi_0_9 AOI21_X1 $PINS ZN=n_0_4 A=n_0_5 B1=a[2] B2=b[2] 
Xi_0_8 INV_X1 $PINS ZN=n_0_3 A=n_0_4 
Xi_0_7 OAI21_X1 $PINS ZN=n_0_2 A=n_0_3 B1=a[2] B2=b[2] 
Xi_0_6 XNOR2_X2 $PINS ZN=sum[3] A=n_0_9 B=n_0_2 
Xi_0_5 XNOR2_X1 $PINS ZN=n_0_1 A=b[2] B=a[2] 
Xi_0_4 XNOR2_X1 $PINS ZN=sum[2] A=n_0_5 B=n_0_1 
Xi_0_3 XOR2_X1 $PINS Z=n_0_0 A=b[1] B=a[1] 
Xi_0_2 XNOR2_X1 $PINS ZN=sum[1] A=n_0_6 B=n_0_0 
Xi_0_1 XOR2_X1 $PINS Z=sum[0] A=b[0] B=a[0] 
Xi_0_0 AOI21_X1 $PINS ZN=cout A=n_0_11 B1=n_0_10 B2=n_0_2 
.ENDS

.SUBCKT CLA in1[31] in1[30] in1[29] in1[28] in1[27] in1[26] in1[25] in1[24] 
+ in1[23] in1[22] in1[21] in1[20] in1[19] in1[18] in1[17] in1[16] in1[15] 
+ in1[14] in1[13] in1[12] in1[11] in1[10] in1[9] in1[8] in1[7] in1[6] in1[5] 
+ in1[4] in1[3] in1[2] in1[1] in1[0] in2[31] in2[30] in2[29] in2[28] in2[27] 
+ in2[26] in2[25] in2[24] in2[23] in2[22] in2[21] in2[20] in2[19] in2[18] 
+ in2[17] in2[16] in2[15] in2[14] in2[13] in2[12] in2[11] in2[10] in2[9] in2[8] 
+ in2[7] in2[6] in2[5] in2[4] in2[3] in2[2] in2[1] in2[0] cin sum[31] sum[30] 
+ sum[29] sum[28] sum[27] sum[26] sum[25] sum[24] sum[23] sum[22] sum[21] 
+ sum[20] sum[19] sum[18] sum[17] sum[16] sum[15] sum[14] sum[13] sum[12] 
+ sum[11] sum[10] sum[9] sum[8] sum[7] sum[6] sum[5] sum[4] sum[3] sum[2] 
+ sum[1] sum[0] cout of 
Xgenblk1_24_cla CLA_4bit $PINS sum[3]=uc_3 sum[2]=uc_4 sum[1]=uc_5 
+ sum[0]=sum[24] a[3]=in1[31] a[2]=uc_0 a[1]=uc_1 a[0]=uc_2 cin=n_4 
Xgenblk1_20_cla CLA_4bit__0_114 $PINS cout=n_4 sum[3]=sum[23] sum[2]=sum[22] 
+ sum[1]=sum[21] sum[0]=sum[20] a[3]=in1[23] a[2]=in1[22] a[1]=in1[21] 
+ a[0]=in1[20] b[3]=in2[23] b[2]=in2[22] b[1]=in2[21] b[0]=in2[20] cin=n_3 
Xgenblk1_16_cla CLA_4bit__0_106 $PINS cout=n_3 sum[3]=sum[19] sum[2]=sum[18] 
+ sum[1]=sum[17] sum[0]=sum[16] a[3]=in1[19] a[2]=in1[18] a[1]=in1[17] 
+ a[0]=in1[16] b[3]=in2[19] b[2]=in2[18] b[1]=in2[17] b[0]=in2[16] cin=n_2 
Xgenblk1_12_cla CLA_4bit__0_98 $PINS cout=n_2 sum[3]=sum[15] sum[2]=sum[14] 
+ sum[1]=sum[13] sum[0]=sum[12] a[3]=in1[15] a[2]=in1[14] a[1]=in1[13] 
+ a[0]=in1[12] b[3]=in2[15] b[2]=in2[14] b[1]=in2[13] b[0]=in2[12] cin=n_1 
Xgenblk1_8_cla CLA_4bit__0_90 $PINS cout=n_1 sum[3]=sum[11] sum[2]=sum[10] 
+ sum[1]=sum[9] sum[0]=sum[8] a[3]=in1[11] a[2]=in1[10] a[1]=in1[9] a[0]=in1[8] 
+ b[3]=in2[11] b[2]=in2[10] b[1]=in2[9] b[0]=in2[8] cin=n_0 
Xgenblk1_4_cla CLA_4bit__0_82 $PINS cout=n_0 sum[3]=sum[7] sum[2]=sum[6] 
+ sum[1]=sum[5] sum[0]=sum[4] a[3]=in1[7] a[2]=in1[6] a[1]=in1[5] a[0]=in1[4] 
+ b[3]=in2[7] b[2]=in2[6] b[1]=in2[5] b[0]=in2[4] cin=c 
Xcla1 CLA_4bit__0_66 $PINS cout=c sum[3]=sum[3] sum[2]=sum[2] sum[1]=sum[1] 
+ sum[0]=sum[0] a[3]=in1[3] a[2]=in1[2] a[1]=in1[1] a[0]=in1[0] b[3]=in2[3] 
+ b[2]=in2[2] b[1]=in2[1] b[0]=in2[0] 
.ENDS

.SUBCKT fp_adder A[31] A[30] A[29] A[28] A[27] A[26] A[25] A[24] A[23] A[22] 
+ A[21] A[20] A[19] A[18] A[17] A[16] A[15] A[14] A[13] A[12] A[11] A[10] A[9] 
+ A[8] A[7] A[6] A[5] A[4] A[3] A[2] A[1] A[0] B[31] B[30] B[29] B[28] B[27] 
+ B[26] B[25] B[24] B[23] B[22] B[21] B[20] B[19] B[18] B[17] B[16] B[15] B[14] 
+ B[13] B[12] B[11] B[10] B[9] B[8] B[7] B[6] B[5] B[4] B[3] B[2] B[1] B[0] 
+ Sum[31] Sum[30] Sum[29] Sum[28] Sum[27] Sum[26] Sum[25] Sum[24] Sum[23] 
+ Sum[22] Sum[21] Sum[20] Sum[19] Sum[18] Sum[17] Sum[16] Sum[15] Sum[14] 
+ Sum[13] Sum[12] Sum[11] Sum[10] Sum[9] Sum[8] Sum[7] Sum[6] Sum[5] Sum[4] 
+ Sum[3] Sum[2] Sum[1] Sum[0] overflow underflow 
Xi_0_724 OAI21_X1 $PINS ZN=n_0_617 A=n_0_527 B1=n_0_518 B2=n_0_505 
Xi_0_723 INV_X1 $PINS ZN=n_102 A=n_0_617 
Xi_0_722 NAND2_X1 $PINS ZN=n_0_616 A1=n_0_537 A2=n_0_533 
Xi_0_721 NOR3_X1 $PINS ZN=n_0_615 A1=n_0_535 A2=A[28] A3=n_0_544 
Xi_0_720 AOI21_X1 $PINS ZN=n_0_614 A=n_0_530 B1=n_0_616 B2=n_0_615 
Xi_0_719 OAI21_X1 $PINS ZN=n_0_602 A=n_0_517 B1=n_0_520 B2=n_0_614 
Xi_0_718 AND2_X1 $PINS ZN=n_0_601 A1=n_0_617 A2=n_0_602 
Xi_0_717 AND2_X1 $PINS ZN=n_0_600 A1=n_0_539 A2=n_0_601 
Xi_0_715 NAND2_X1 $PINS ZN=n_0_599 A1=n_0_510 A2=n_0_540 
Xi_0_713 OAI21_X2 $PINS ZN=n_0_598 A=n_0_599 B1=n_0_540 B2=n_0_450 
Xi_0_710 INV_X1 $PINS ZN=n_0_597 A=n_0_598 
Xi_0_709 NOR2_X1 $PINS ZN=n_0_596 A1=n_0_514 A2=n_0_95 
Xi_0_708 NAND2_X1 $PINS ZN=n_0_595 A1=n_0_513 A2=n_0_596 
Xi_0_707 OAI21_X1 $PINS ZN=n_0_594 A=n_0_595 B1=n_0_513 B2=n_0_596 
Xi_0_706 INV_X1 $PINS ZN=n_0_593 A=n_0_594 
Xi_0_705 OAI21_X1 $PINS ZN=n_0_592 A=n_0_524 B1=n_0_526 B2=n_0_525 
Xi_0_704 XOR2_X1 $PINS Z=n_0_591 A=n_0_523 B=n_0_436 
Xi_0_703 INV_X1 $PINS ZN=n_0_590 A=n_0_591 
Xi_0_702 NOR2_X1 $PINS ZN=n_0_589 A1=n_0_592 A2=n_0_591 
Xi_0_701 INV_X1 $PINS ZN=n_0_577 A=n_0_589 
Xi_0_700 NOR2_X2 $PINS ZN=n_0_576 A1=n_0_593 A2=n_0_577 
Xi_0_699 NAND2_X1 $PINS ZN=n_0_575 A1=n_0_593 A2=n_0_589 
Xi_0_698 NAND2_X1 $PINS ZN=n_0_574 A1=n_0_592 A2=n_0_590 
Xi_0_697 INV_X1 $PINS ZN=n_0_573 A=n_0_574 
Xi_0_696 NOR2_X1 $PINS ZN=n_0_572 A1=n_0_594 A2=n_0_574 
Xi_0_695 NOR2_X1 $PINS ZN=n_0_571 A1=n_0_593 A2=n_0_574 
Xi_0_694 NAND2_X1 $PINS ZN=n_0_570 A1=B[12] A2=n_0_576 
Xi_0_693 OAI21_X1 $PINS ZN=n_0_569 A=n_0_570 B1=n_0_314 B2=n_0_575 
Xi_0_686 AOI221_X1 $PINS ZN=n_0_568 A=n_0_569 B1=B[16] B2=n_0_572 C1=B[20] 
+ C2=n_0_571 
Xi_0_684 AOI22_X1 $PINS ZN=n_0_567 A1=B[10] A2=n_0_589 B1=B[18] B2=n_0_573 
Xi_0_683 NOR2_X1 $PINS ZN=n_0_566 A1=n_0_592 A2=n_0_590 
Xi_0_682 AOI222_X1 $PINS ZN=n_0_565 A1=B[22] A2=n_0_566 B1=B[6] B2=n_0_589 
+ C1=B[14] C2=n_0_573 
Xi_0_681 OAI22_X1 $PINS ZN=n_0_562 A1=n_0_594 A2=n_0_565 B1=n_0_593 B2=n_0_567 
Xi_0_680 INV_X1 $PINS ZN=n_0_561 A=n_0_562 
Xi_0_679 OAI22_X1 $PINS ZN=n_0_560 A1=n_0_598 A2=n_0_561 B1=n_0_597 B2=n_0_568 
Xi_0_678 NAND2_X1 $PINS ZN=n_0_559 A1=n_0_540 A2=n_0_601 
Xi_0_677 INV_X1 $PINS ZN=n_0_558 A=n_0_559 
Xi_0_676 AOI22_X1 $PINS ZN=n_0_557 A1=B[21] A2=n_0_566 B1=B[13] B2=n_0_573 
Xi_0_675 OAI21_X1 $PINS ZN=n_0_556 A=n_0_557 B1=n_0_308 B2=n_0_577 
Xi_0_674 AOI222_X1 $PINS ZN=n_0_555 A1=B[9] A2=n_0_576 B1=B[17] B2=n_0_571 
+ C1=n_0_593 C2=n_0_556 
Xi_0_673 NAND2_X1 $PINS ZN=n_0_554 A1=B[15] A2=n_0_590 
Xi_0_672 AOI22_X1 $PINS ZN=n_0_553 A1=n_0_592 A2=n_0_554 B1=n_0_312 B2=n_0_589 
Xi_0_671 AOI222_X1 $PINS ZN=n_0_552 A1=n_0_593 A2=n_0_553 B1=B[11] B2=n_0_576 
+ C1=B[19] C2=n_0_571 
Xi_0_670 OAI22_X1 $PINS ZN=n_0_551 A1=n_0_597 A2=n_0_552 B1=n_0_598 B2=n_0_555 
Xi_0_669 AOI222_X1 $PINS ZN=n_0_550 A1=n_0_600 A2=n_0_560 B1=B[5] B2=n_102 
+ C1=n_0_558 C2=n_0_551 
Xi_0_668 INV_X1 $PINS ZN=n_101 A=n_0_550 
Xi_0_667 INV_X1 $PINS ZN=n_0_549 A=A[28] 
Xi_0_666 INV_X1 $PINS ZN=n_0_548 A=A[25] 
Xi_0_665 INV_X1 $PINS ZN=n_0_547 A=A[23] 
Xi_0_664 INV_X1 $PINS ZN=n_0_546 A=B[30] 
Xi_0_663 INV_X1 $PINS ZN=n_0_545 A=B[29] 
Xi_0_662 INV_X1 $PINS ZN=n_0_544 A=B[28] 
Xi_0_661 INV_X1 $PINS ZN=n_0_543 A=B[27] 
Xi_0_660 INV_X1 $PINS ZN=n_0_542 A=B[26] 
Xi_0_659 NOR2_X1 $PINS ZN=n_0_541 A1=n_0_547 A2=B[23] 
Xi_0_658 AOI21_X1 $PINS ZN=n_0_540 A=n_0_541 B1=n_0_547 B2=B[23] 
Xi_0_657 INV_X1 $PINS ZN=n_0_539 A=n_0_540 
Xi_0_656 NOR2_X1 $PINS ZN=n_0_538 A1=A[30] A2=B[30] 
Xi_0_655 AOI21_X1 $PINS ZN=n_0_537 A=n_0_538 B1=A[30] B2=B[30] 
Xi_0_654 INV_X1 $PINS ZN=n_0_536 A=n_0_537 
Xi_0_653 AOI21_X1 $PINS ZN=n_0_535 A=n_0_537 B1=A[29] B2=n_0_545 
Xi_0_652 NOR2_X1 $PINS ZN=n_0_534 A1=A[29] A2=n_0_545 
Xi_0_651 INV_X1 $PINS ZN=n_0_533 A=n_0_534 
Xi_0_650 NAND2_X1 $PINS ZN=n_0_531 A1=n_0_535 A2=n_0_533 
Xi_0_649 NOR3_X1 $PINS ZN=n_0_530 A1=n_0_549 A2=B[28] A3=n_0_531 
Xi_0_648 NOR2_X1 $PINS ZN=n_0_529 A1=A[30] A2=n_0_546 
Xi_0_647 NOR2_X1 $PINS ZN=n_0_528 A1=n_0_535 A2=n_0_529 
Xi_0_646 NOR2_X1 $PINS ZN=n_0_527 A1=n_0_530 A2=n_0_528 
Xi_0_645 XOR2_X1 $PINS Z=n_0_526 A=A[26] B=n_0_542 
Xi_0_644 OAI21_X1 $PINS ZN=n_0_525 A=n_0_595 B1=A[25] B2=n_0_99 
Xi_0_643 NAND2_X1 $PINS ZN=n_0_524 A1=n_0_526 A2=n_0_525 
Xi_0_642 OAI21_X1 $PINS ZN=n_0_523 A=n_0_524 B1=A[26] B2=n_0_542 
Xi_0_641 NAND2_X1 $PINS ZN=n_0_522 A1=A[27] A2=n_0_543 
Xi_0_640 NOR2_X1 $PINS ZN=n_0_521 A1=A[27] A2=n_0_543 
Xi_0_639 OAI21_X1 $PINS ZN=n_0_520 A=n_0_522 B1=n_0_523 B2=n_0_521 
Xi_0_638 AOI211_X1 $PINS ZN=n_0_519 A=n_0_529 B=n_0_534 C1=n_0_549 C2=B[28] 
Xi_0_637 INV_X1 $PINS ZN=n_0_518 A=n_0_519 
Xi_0_636 NAND3_X1 $PINS ZN=n_0_517 A1=n_0_527 A2=n_0_520 A3=n_0_519 
Xi_0_635 NAND2_X2 $PINS ZN=n_100 A1=n_0_527 A2=n_0_517 
Xi_0_633 NOR2_X1 $PINS ZN=n_0_514 A1=B[24] A2=n_0_96 
Xi_0_632 OAI22_X1 $PINS ZN=n_0_513 A1=A[25] A2=B[25] B1=n_0_548 B2=n_0_99 
Xi_0_631 INV_X1 $PINS ZN=n_0_512 A=n_0_513 
Xi_0_630 AOI21_X1 $PINS ZN=n_0_511 A=n_0_514 B1=B[24] B2=n_0_96 
Xi_0_629 INV_X1 $PINS ZN=n_0_510 A=n_0_511 
Xi_0_628 AOI21_X1 $PINS ZN=n_0_509 A=n_0_514 B1=n_0_541 B2=n_0_511 
Xi_0_627 OAI22_X1 $PINS ZN=n_0_508 A1=n_0_548 A2=B[25] B1=n_0_512 B2=n_0_509 
Xi_0_626 AOI22_X1 $PINS ZN=n_0_507 A1=A[26] A2=n_0_542 B1=n_0_526 B2=n_0_508 
Xi_0_625 AOI21_X1 $PINS ZN=n_0_506 A=n_0_521 B1=n_0_522 B2=n_0_507 
Xi_0_624 INV_X1 $PINS ZN=n_0_505 A=n_0_506 
Xi_0_623 AOI22_X1 $PINS ZN=n_0_503 A1=A[29] A2=n_0_545 B1=n_0_536 B2=n_0_534 
Xi_0_622 OAI33_X1 $PINS ZN=n_0_495 A1=n_0_549 A2=B[28] A3=n_0_503 B1=A[28] 
+ B2=n_0_544 B3=n_0_531 
Xi_0_621 OAI221_X1 $PINS ZN=n_0_493 A=n_0_396 B1=n_0_519 B2=n_0_506 C1=n_0_505 
+ C2=n_0_495 
Xi_0_620 INV_X1 $PINS ZN=n_0_492 A=n_0_493 
Xi_0_619 NOR2_X2 $PINS ZN=n_0_484 A1=n_0_539 A2=n_0_493 
Xi_0_618 INV_X1 $PINS ZN=n_0_471 A=n_0_484 
Xi_0_617 XOR2_X1 $PINS Z=n_0_470 A=n_0_541 B=n_0_511 
Xi_0_616 INV_X1 $PINS ZN=n_0_450 A=drc_ipo_n4 
Xi_0_615 XOR2_X1 $PINS Z=n_0_442 A=n_0_512 B=n_0_509 
Xi_0_614 INV_X1 $PINS ZN=n_0_441 A=n_0_442 
Xi_0_613 XOR2_X1 $PINS Z=n_0_440 A=n_0_526 B=n_0_508 
Xi_0_612 INV_X1 $PINS ZN=n_0_439 A=n_0_440 
Xi_0_611 OAI21_X1 $PINS ZN=n_0_436 A=n_0_522 B1=A[27] B2=n_0_543 
Xi_0_610 XOR2_X1 $PINS Z=n_0_435 A=n_0_507 B=n_0_436 
Xi_0_609 NAND2_X1 $PINS ZN=n_0_434 A1=n_0_439 A2=n_0_435 
Xi_0_608 INV_X1 $PINS ZN=n_0_433 A=n_0_434 
Xi_0_607 NAND2_X1 $PINS ZN=n_0_430 A1=n_0_440 A2=n_0_435 
Xi_0_606 INV_X1 $PINS ZN=n_0_429 A=n_0_430 
Xi_0_605 AOI22_X1 $PINS ZN=n_0_428 A1=A[11] A2=n_0_429 B1=A[19] B2=n_0_433 
Xi_0_604 INV_X1 $PINS ZN=n_0_427 A=n_0_428 
Xi_0_602 NAND2_X1 $PINS ZN=n_0_425 A1=A[15] A2=n_0_435 
Xi_0_601 AOI22_X1 $PINS ZN=n_0_424 A1=n_0_439 A2=n_0_425 B1=n_0_310 B2=n_0_429 
Xi_0_600 OAI22_X1 $PINS ZN=n_0_423 A1=n_0_441 A2=n_0_424 B1=n_0_442 B2=n_0_427 
Xi_0_599 NOR2_X2 $PINS ZN=n_0_422 A1=n_0_441 A2=n_0_430 
Xi_0_598 INV_X1 $PINS ZN=n_0_421 A=n_0_422 
Xi_0_597 OAI22_X1 $PINS ZN=n_0_395 A1=A[21] A2=n_0_442 B1=A[17] B2=n_0_441 
Xi_0_596 NOR2_X1 $PINS ZN=n_0_394 A1=n_0_442 A2=n_0_430 
Xi_0_595 NOR2_X1 $PINS ZN=n_0_393 A1=n_0_434 A2=n_0_395 
Xi_0_594 AOI221_X1 $PINS ZN=n_0_392 A=n_0_393 B1=A[9] B2=n_0_422 C1=A[13] 
+ C2=n_0_394 
Xi_0_593 OAI22_X1 $PINS ZN=n_0_391 A1=drc_ipo_n4 A2=n_0_392 B1=n_0_450 
+ B2=n_0_423 
Xi_0_592 NOR2_X2 $PINS ZN=n_0_390 A1=n_0_540 A2=n_0_493 
Xi_0_591 NOR2_X1 $PINS ZN=n_0_389 A1=n_0_442 A2=n_0_434 
Xi_0_590 NOR2_X1 $PINS ZN=n_0_388 A1=n_0_441 A2=n_0_434 
Xi_0_589 AOI22_X1 $PINS ZN=n_0_387 A1=A[18] A2=n_0_388 B1=A[14] B2=n_0_394 
Xi_0_588 INV_X1 $PINS ZN=n_0_386 A=n_0_387 
Xi_0_587 AOI221_X1 $PINS ZN=n_0_385 A=n_0_386 B1=A[22] B2=n_0_389 C1=A[10] 
+ C2=n_0_422 
Xi_0_586 INV_X1 $PINS ZN=n_0_384 A=n_0_385 
Xi_0_585 NAND2_X1 $PINS ZN=n_0_383 A1=A[12] A2=n_0_394 
Xi_0_584 OAI21_X1 $PINS ZN=n_0_375 A=n_0_383 B1=n_0_313 B2=n_0_421 
Xi_0_583 AOI221_X1 $PINS ZN=n_0_374 A=n_0_375 B1=A[16] B2=n_0_388 C1=A[20] 
+ C2=n_0_389 
Xi_0_582 AOI22_X1 $PINS ZN=n_0_369 A1=drc_ipo_n4 A2=n_0_374 B1=n_0_450 
+ B2=n_0_385 
Xi_0_581 AOI222_X1 $PINS ZN=n_0_366 A1=n_0_484 A2=n_0_391 B1=A[7] B2=n_100 
+ C1=n_0_390 C2=n_0_369 
Xi_0_580 INV_X1 $PINS ZN=n_99 A=n_0_366 
Xi_0_579 AOI221_X1 $PINS ZN=n_0_362 A=n_0_354 B1=B[8] B2=n_0_313 C1=B[9] 
+ C2=n_0_361 
Xi_0_578 INV_X1 $PINS ZN=n_0_361 A=A[9] 
Xi_0_577 AOI22_X1 $PINS ZN=n_0_354 A1=n_0_352 A2=n_0_353 B1=n_0_314 B2=A[8] 
Xi_0_576 NAND2_X1 $PINS ZN=n_0_353 A1=n_0_310 A2=B[7] 
Xi_0_575 OAI221_X1 $PINS ZN=n_0_352 A=n_0_345 B1=n_0_309 B2=B[6] C1=B[7] 
+ C2=n_0_310 
Xi_0_574 OAI221_X1 $PINS ZN=n_0_345 A=n_0_327 B1=A[6] B2=n_0_333 C1=n_0_308 
+ C2=A[5] 
Xi_0_573 INV_X1 $PINS ZN=n_0_333 A=B[6] 
Xi_0_572 OAI221_X1 $PINS ZN=n_0_327 A=n_0_326 B1=n_0_306 B2=B[4] C1=B[5] 
+ C2=n_0_307 
Xi_0_571 OAI221_X1 $PINS ZN=n_0_326 A=n_0_325 B1=A[4] B2=n_0_201 C1=n_0_202 
+ C2=A[3] 
Xi_0_570 OAI221_X1 $PINS ZN=n_0_325 A=n_0_319 B1=B[3] B2=n_0_323 C1=n_0_324 
+ C2=B[2] 
Xi_0_569 INV_X1 $PINS ZN=n_0_324 A=A[2] 
Xi_0_568 INV_X1 $PINS ZN=n_0_323 A=A[3] 
Xi_0_567 OAI221_X1 $PINS ZN=n_0_319 A=n_0_316 B1=n_0_199 B2=A[2] C1=n_0_200 
+ C2=A[1] 