* SPICE NETLIST
***************************************

.SUBCKT MGC_via2_1x2_VV_1
** N=1 EP=0 IP=0 FDC=0
.ENDS
***************************************
.SUBCKT MGC_via2_1x2_VV
** N=1 EP=0 IP=0 FDC=0
.ENDS
***************************************
.SUBCKT MGC_via1_1x2_VV_0
** N=1 EP=0 IP=0 FDC=0
.ENDS
***************************************
.SUBCKT MGC_via1_1x2_VV_1
** N=1 EP=0 IP=0 FDC=0
.ENDS
***************************************
.SUBCKT MGC_via2_2x1_HH_0
** N=1 EP=0 IP=0 FDC=0
.ENDS
***************************************
.SUBCKT MGC_via2_2x1_HH_1
** N=1 EP=0 IP=0 FDC=0
.ENDS
***************************************
.SUBCKT ICV_1
** N=2 EP=0 IP=2 FDC=0
.ENDS
***************************************
.SUBCKT MGC_via2_1x2_VV_0
** N=1 EP=0 IP=0 FDC=0
.ENDS
***************************************
.SUBCKT MGC_via2_1x2_VH_1
** N=1 EP=0 IP=0 FDC=0
.ENDS
***************************************
.SUBCKT MGC_via2_1x2_VH_0
** N=1 EP=0 IP=0 FDC=0
.ENDS
***************************************
.SUBCKT MGC_via1_1x2_VV
** N=1 EP=0 IP=0 FDC=0
.ENDS
***************************************
.SUBCKT MGC_via1_1x2_HV
** N=1 EP=0 IP=0 FDC=0
.ENDS
***************************************
.SUBCKT MGC_via1_1x2_HV_0
** N=1 EP=0 IP=0 FDC=0
.ENDS
***************************************
.SUBCKT via1_5
** N=1 EP=0 IP=0 FDC=0
.ENDS
***************************************
.SUBCKT via2_7
** N=1 EP=0 IP=0 FDC=0
.ENDS
***************************************
.SUBCKT ICV_2
** N=1 EP=0 IP=2 FDC=0
.ENDS
***************************************
.SUBCKT via2_5
** N=1 EP=0 IP=0 FDC=0
.ENDS
***************************************
.SUBCKT WELLTAP
** N=2 EP=0 IP=0 FDC=0
*.CALIBRE ISOLATED NETS: VSS VDD
.ENDS
***************************************
.SUBCKT ICV_3
** N=1 EP=0 IP=2 FDC=0
.ENDS
***************************************
.SUBCKT MGC_via1_1x2_HV_1
** N=1 EP=0 IP=0 FDC=0
.ENDS
***************************************
.SUBCKT FILLCELL_X2
** N=3 EP=0 IP=0 FDC=0
*.CALIBRE ISOLATED NETS: VSS VDD
.ENDS
***************************************
.SUBCKT ICV_4
** N=2 EP=0 IP=5 FDC=0
.ENDS
***************************************
.SUBCKT INV_X1 A VSS VDD ZN
** N=4 EP=4 IP=0 FDC=2
M0 ZN A VSS VSS NMOS_VTL L=5e-08 W=4.15e-07 AD=4.3575e-14 AS=4.3575e-14 PD=1.04e-06 PS=1.04e-06 $X=145 $Y=90 $D=1
M1 ZN A VDD VDD PMOS_VTL L=5e-08 W=6.3e-07 AD=6.615e-14 AS=6.615e-14 PD=1.47e-06 PS=1.47e-06 $X=145 $Y=680 $D=0
.ENDS
***************************************
.SUBCKT ICV_5 1 2 3 4
** N=4 EP=4 IP=7 FDC=2
X1 3 1 2 4 INV_X1 $T=190 0 0 0 $X=75 $Y=-115
.ENDS
***************************************
.SUBCKT NOR2_X1 A2 VDD A1 ZN VSS
** N=6 EP=5 IP=0 FDC=4
M0 ZN A2 VSS VSS NMOS_VTL L=5e-08 W=4.15e-07 AD=5.81e-14 AS=4.3575e-14 PD=1.11e-06 PS=1.04e-06 $X=160 $Y=90 $D=1
M1 VSS A1 ZN VSS NMOS_VTL L=5e-08 W=4.15e-07 AD=4.3575e-14 AS=5.81e-14 PD=1.04e-06 PS=1.11e-06 $X=350 $Y=90 $D=1
M2 6 A2 VDD VDD PMOS_VTL L=5e-08 W=6.3e-07 AD=8.82e-14 AS=6.615e-14 PD=1.54e-06 PS=1.47e-06 $X=160 $Y=680 $D=0
M3 ZN A1 6 VDD PMOS_VTL L=5e-08 W=6.3e-07 AD=6.615e-14 AS=8.82e-14 PD=1.47e-06 PS=1.54e-06 $X=350 $Y=680 $D=0
.ENDS
***************************************
.SUBCKT ICV_6
** N=3 EP=0 IP=6 FDC=0
.ENDS
***************************************
.SUBCKT FILLCELL_X4
** N=3 EP=0 IP=0 FDC=0
*.CALIBRE ISOLATED NETS: VSS VDD
.ENDS
***************************************
.SUBCKT MGC_via1_2x1_HH_0
** N=1 EP=0 IP=0 FDC=0
.ENDS
***************************************
.SUBCKT ICV_7
** N=2 EP=0 IP=2 FDC=0
.ENDS
***************************************
.SUBCKT AOI22_X1 B2 B1 VDD A1 ZN A2 VSS
** N=10 EP=7 IP=0 FDC=8
M0 9 B2 VSS VSS NMOS_VTL L=5e-08 W=4.15e-07 AD=5.81e-14 AS=4.3575e-14 PD=1.11e-06 PS=1.04e-06 $X=160 $Y=90 $D=1
M1 ZN B1 9 VSS NMOS_VTL L=5e-08 W=4.15e-07 AD=5.81e-14 AS=5.81e-14 PD=1.11e-06 PS=1.11e-06 $X=350 $Y=90 $D=1
M2 10 A1 ZN VSS NMOS_VTL L=5e-08 W=4.15e-07 AD=5.81e-14 AS=5.81e-14 PD=1.11e-06 PS=1.11e-06 $X=540 $Y=90 $D=1
M3 VSS A2 10 VSS NMOS_VTL L=5e-08 W=4.15e-07 AD=4.3575e-14 AS=5.81e-14 PD=1.04e-06 PS=1.11e-06 $X=730 $Y=90 $D=1
M4 VDD B2 8 VDD PMOS_VTL L=5e-08 W=6.3e-07 AD=8.82e-14 AS=6.615e-14 PD=1.54e-06 PS=1.47e-06 $X=160 $Y=680 $D=0
M5 8 B1 VDD VDD PMOS_VTL L=5e-08 W=6.3e-07 AD=8.82e-14 AS=8.82e-14 PD=1.54e-06 PS=1.54e-06 $X=350 $Y=680 $D=0
M6 ZN A1 8 VDD PMOS_VTL L=5e-08 W=6.3e-07 AD=8.82e-14 AS=8.82e-14 PD=1.54e-06 PS=1.54e-06 $X=540 $Y=680 $D=0
M7 8 A2 ZN VDD PMOS_VTL L=5e-08 W=6.3e-07 AD=6.615e-14 AS=8.82e-14 PD=1.47e-06 PS=1.54e-06 $X=730 $Y=680 $D=0
.ENDS
***************************************
.SUBCKT ICV_8
** N=1 EP=0 IP=2 FDC=0
.ENDS
***************************************
.SUBCKT MGC_via2_2x1_VH_0
** N=1 EP=0 IP=0 FDC=0
.ENDS
***************************************
.SUBCKT AND2_X1 A1 A2 VSS VDD ZN 6
** N=8 EP=6 IP=0 FDC=6
M0 8 A1 7 6 NMOS_VTL L=5e-08 W=2.1e-07 AD=2.94e-14 AS=2.205e-14 PD=7e-07 PS=6.3e-07 $X=145 $Y=90 $D=1
M1 VSS A2 8 6 NMOS_VTL L=5e-08 W=2.1e-07 AD=4.375e-14 AS=2.94e-14 PD=1.11e-06 PS=7e-07 $X=335 $Y=90 $D=1
M2 ZN 7 VSS 6 NMOS_VTL L=5e-08 W=4.15e-07 AD=4.3575e-14 AS=4.375e-14 PD=1.04e-06 PS=1.11e-06 $X=525 $Y=90 $D=1
M3 7 A1 VDD VDD PMOS_VTL L=5e-08 W=3.15e-07 AD=4.41e-14 AS=3.3075e-14 PD=9.1e-07 PS=8.4e-07 $X=145 $Y=995 $D=0
M4 VDD A2 7 VDD PMOS_VTL L=5e-08 W=3.15e-07 AD=6.615e-14 AS=4.41e-14 PD=1.54e-06 PS=9.1e-07 $X=335 $Y=995 $D=0
M5 ZN 7 VDD VDD PMOS_VTL L=5e-08 W=6.3e-07 AD=6.615e-14 AS=6.615e-14 PD=1.47e-06 PS=1.54e-06 $X=525 $Y=680 $D=0
.ENDS
***************************************
.SUBCKT AOI21_X1 B2 B1 ZN A VSS VDD
** N=8 EP=6 IP=0 FDC=6
M0 8 B2 VSS VSS NMOS_VTL L=5e-08 W=4.15e-07 AD=5.81e-14 AS=4.3575e-14 PD=1.11e-06 PS=1.04e-06 $X=185 $Y=90 $D=1
M1 ZN B1 8 VSS NMOS_VTL L=5e-08 W=4.15e-07 AD=5.81e-14 AS=5.81e-14 PD=1.11e-06 PS=1.11e-06 $X=375 $Y=90 $D=1
M2 VSS A ZN VSS NMOS_VTL L=5e-08 W=4.15e-07 AD=4.3575e-14 AS=5.81e-14 PD=1.04e-06 PS=1.11e-06 $X=565 $Y=90 $D=1
M3 ZN B2 7 VDD PMOS_VTL L=5e-08 W=6.3e-07 AD=8.82e-14 AS=6.615e-14 PD=1.54e-06 PS=1.47e-06 $X=185 $Y=680 $D=0
M4 7 B1 ZN VDD PMOS_VTL L=5e-08 W=6.3e-07 AD=8.82e-14 AS=8.82e-14 PD=1.54e-06 PS=1.54e-06 $X=375 $Y=680 $D=0
M5 VDD A 7 VDD PMOS_VTL L=5e-08 W=6.3e-07 AD=6.615e-14 AS=8.82e-14 PD=1.47e-06 PS=1.54e-06 $X=565 $Y=680 $D=0
.ENDS
***************************************
.SUBCKT MGC_via1_2x1_HH_1
** N=1 EP=0 IP=0 FDC=0
.ENDS
***************************************
.SUBCKT ICV_9
** N=2 EP=0 IP=2 FDC=0
.ENDS
***************************************
.SUBCKT ICV_10
** N=3 EP=0 IP=6 FDC=0
.ENDS
***************************************
.SUBCKT ICV_11
** N=2 EP=0 IP=5 FDC=0
.ENDS
***************************************
.SUBCKT MGC_via1_2x1_VH_1
** N=1 EP=0 IP=0 FDC=0
.ENDS
***************************************
.SUBCKT MGC_via2_2x1_VH_1
** N=1 EP=0 IP=0 FDC=0
.ENDS
***************************************
.SUBCKT ICV_12
** N=1 EP=0 IP=2 FDC=0
.ENDS
***************************************
.SUBCKT ICV_13
** N=1 EP=0 IP=2 FDC=0
.ENDS
***************************************
.SUBCKT XNOR2_X1 VSS A ZN B VDD
** N=9 EP=5 IP=0 FDC=10
M0 9 A 6 VSS NMOS_VTL L=5e-08 W=2.1e-07 AD=2.94e-14 AS=2.205e-14 PD=7e-07 PS=6.3e-07 $X=155 $Y=90 $D=1
M1 VSS B 9 VSS NMOS_VTL L=5e-08 W=2.1e-07 AD=4.48e-14 AS=2.94e-14 PD=1.12e-06 PS=7e-07 $X=345 $Y=90 $D=1
M2 7 6 VSS VSS NMOS_VTL L=5e-08 W=4.15e-07 AD=5.81e-14 AS=4.48e-14 PD=1.11e-06 PS=1.12e-06 $X=540 $Y=90 $D=1
M3 ZN A 7 VSS NMOS_VTL L=5e-08 W=4.15e-07 AD=5.81e-14 AS=5.81e-14 PD=1.11e-06 PS=1.11e-06 $X=730 $Y=90 $D=1
M4 7 B ZN VSS NMOS_VTL L=5e-08 W=4.15e-07 AD=4.3575e-14 AS=5.81e-14 PD=1.04e-06 PS=1.11e-06 $X=920 $Y=90 $D=1
M5 6 A VDD VDD PMOS_VTL L=5e-08 W=3.15e-07 AD=4.41e-14 AS=3.3075e-14 PD=9.1e-07 PS=8.4e-07 $X=155 $Y=995 $D=0
M6 VDD B 6 VDD PMOS_VTL L=5e-08 W=3.15e-07 AD=6.7725e-14 AS=4.41e-14 PD=1.55e-06 PS=9.1e-07 $X=345 $Y=995 $D=0
M7 ZN 6 VDD VDD PMOS_VTL L=5e-08 W=6.3e-07 AD=8.82e-14 AS=6.7725e-14 PD=1.54e-06 PS=1.55e-06 $X=540 $Y=680 $D=0
M8 8 A ZN VDD PMOS_VTL L=5e-08 W=6.3e-07 AD=8.82e-14 AS=8.82e-14 PD=1.54e-06 PS=1.54e-06 $X=730 $Y=680 $D=0
M9 VDD B 8 VDD PMOS_VTL L=5e-08 W=6.3e-07 AD=6.615e-14 AS=8.82e-14 PD=1.47e-06 PS=1.54e-06 $X=920 $Y=680 $D=0
.ENDS
***************************************
.SUBCKT XOR2_X1 VDD A Z B VSS
** N=9 EP=5 IP=0 FDC=10
M0 6 A VSS VSS NMOS_VTL L=5e-08 W=2.1e-07 AD=2.94e-14 AS=2.205e-14 PD=7e-07 PS=6.3e-07 $X=145 $Y=90 $D=1
M1 VSS B 6 VSS NMOS_VTL L=5e-08 W=2.1e-07 AD=4.48e-14 AS=2.94e-14 PD=1.12e-06 PS=7e-07 $X=335 $Y=90 $D=1
M2 Z 6 VSS VSS NMOS_VTL L=5e-08 W=4.15e-07 AD=5.81e-14 AS=4.48e-14 PD=1.11e-06 PS=1.12e-06 $X=530 $Y=90 $D=1
M3 9 A Z VSS NMOS_VTL L=5e-08 W=4.15e-07 AD=5.81e-14 AS=5.81e-14 PD=1.11e-06 PS=1.11e-06 $X=720 $Y=90 $D=1
M4 VSS B 9 VSS NMOS_VTL L=5e-08 W=4.15e-07 AD=4.3575e-14 AS=5.81e-14 PD=1.04e-06 PS=1.11e-06 $X=910 $Y=90 $D=1
M5 8 A 6 VDD PMOS_VTL L=5e-08 W=3.15e-07 AD=4.41e-14 AS=3.3075e-14 PD=9.1e-07 PS=8.4e-07 $X=145 $Y=995 $D=0
M6 VDD B 8 VDD PMOS_VTL L=5e-08 W=3.15e-07 AD=6.7725e-14 AS=4.41e-14 PD=1.55e-06 PS=9.1e-07 $X=335 $Y=995 $D=0
M7 7 6 VDD VDD PMOS_VTL L=5e-08 W=6.3e-07 AD=8.82e-14 AS=6.7725e-14 PD=1.54e-06 PS=1.55e-06 $X=530 $Y=680 $D=0
M8 Z A 7 VDD PMOS_VTL L=5e-08 W=6.3e-07 AD=8.82e-14 AS=8.82e-14 PD=1.54e-06 PS=1.54e-06 $X=720 $Y=680 $D=0
M9 7 B Z VDD PMOS_VTL L=5e-08 W=6.3e-07 AD=6.615e-14 AS=8.82e-14 PD=1.47e-06 PS=1.54e-06 $X=910 $Y=680 $D=0
.ENDS
***************************************
.SUBCKT ICV_14
** N=3 EP=0 IP=6 FDC=0
.ENDS
***************************************
.SUBCKT MGC_via2_2x1_HH
** N=1 EP=0 IP=0 FDC=0
.ENDS
***************************************
.SUBCKT ICV_15
** N=3 EP=0 IP=6 FDC=0
.ENDS
***************************************
.SUBCKT FILLCELL_X8
** N=3 EP=0 IP=0 FDC=0
*.CALIBRE ISOLATED NETS: VSS VDD
.ENDS
***************************************
.SUBCKT ICV_16
** N=3 EP=0 IP=6 FDC=0
.ENDS
***************************************
.SUBCKT ICV_17
** N=2 EP=0 IP=2 FDC=0
.ENDS
***************************************
.SUBCKT ICV_18
** N=1 EP=0 IP=2 FDC=0
.ENDS
***************************************
.SUBCKT OR3_X1 A1 A2 A3 VSS VDD ZN
** N=9 EP=6 IP=0 FDC=8
M0 VSS A1 7 VSS NMOS_VTL L=5e-08 W=2.1e-07 AD=2.94e-14 AS=2.205e-14 PD=7e-07 PS=6.3e-07 $X=145 $Y=90 $D=1
M1 7 A2 VSS VSS NMOS_VTL L=5e-08 W=2.1e-07 AD=2.94e-14 AS=2.94e-14 PD=7e-07 PS=7e-07 $X=335 $Y=90 $D=1
M2 VSS A3 7 VSS NMOS_VTL L=5e-08 W=2.1e-07 AD=4.375e-14 AS=2.94e-14 PD=1.11e-06 PS=7e-07 $X=525 $Y=90 $D=1
M3 ZN 7 VSS VSS NMOS_VTL L=5e-08 W=4.15e-07 AD=4.3575e-14 AS=4.375e-14 PD=1.04e-06 PS=1.11e-06 $X=715 $Y=90 $D=1
M4 8 A1 7 VDD PMOS_VTL L=5e-08 W=3.15e-07 AD=4.41e-14 AS=3.3075e-14 PD=9.1e-07 PS=8.4e-07 $X=145 $Y=995 $D=0
M5 9 A2 8 VDD PMOS_VTL L=5e-08 W=3.15e-07 AD=4.41e-14 AS=4.41e-14 PD=9.1e-07 PS=9.1e-07 $X=335 $Y=995 $D=0
M6 VDD A3 9 VDD PMOS_VTL L=5e-08 W=3.15e-07 AD=6.615e-14 AS=4.41e-14 PD=1.54e-06 PS=9.1e-07 $X=525 $Y=995 $D=0
M7 ZN 7 VDD VDD PMOS_VTL L=5e-08 W=6.3e-07 AD=6.615e-14 AS=6.615e-14 PD=1.47e-06 PS=1.54e-06 $X=715 $Y=680 $D=0
.ENDS
***************************************
.SUBCKT ICV_19
** N=1 EP=0 IP=2 FDC=0
.ENDS
***************************************
.SUBCKT ICV_20
** N=1 EP=0 IP=2 FDC=0
.ENDS
***************************************
.SUBCKT ICV_21
** N=2 EP=0 IP=2 FDC=0
.ENDS
***************************************
.SUBCKT MGC_via1_2x1_VH_0
** N=1 EP=0 IP=0 FDC=0
.ENDS
***************************************
.SUBCKT ICV_22
** N=2 EP=0 IP=2 FDC=0
.ENDS
***************************************
.SUBCKT ICV_23
** N=3 EP=0 IP=6 FDC=0
.ENDS
***************************************
.SUBCKT ICV_24
** N=1 EP=0 IP=2 FDC=0
.ENDS
***************************************
.SUBCKT OAI21_X1 B2 B1 ZN A VSS VDD
** N=8 EP=6 IP=0 FDC=6
M0 ZN B2 7 VSS NMOS_VTL L=5e-08 W=4.15e-07 AD=5.81e-14 AS=4.3575e-14 PD=1.11e-06 PS=1.04e-06 $X=170 $Y=90 $D=1
M1 7 B1 ZN VSS NMOS_VTL L=5e-08 W=4.15e-07 AD=5.81e-14 AS=5.81e-14 PD=1.11e-06 PS=1.11e-06 $X=360 $Y=90 $D=1
M2 VSS A 7 VSS NMOS_VTL L=5e-08 W=4.15e-07 AD=4.3575e-14 AS=5.81e-14 PD=1.04e-06 PS=1.11e-06 $X=550 $Y=90 $D=1
M3 8 B2 VDD VDD PMOS_VTL L=5e-08 W=6.3e-07 AD=8.82e-14 AS=6.615e-14 PD=1.54e-06 PS=1.47e-06 $X=170 $Y=680 $D=0
M4 ZN B1 8 VDD PMOS_VTL L=5e-08 W=6.3e-07 AD=8.82e-14 AS=8.82e-14 PD=1.54e-06 PS=1.54e-06 $X=360 $Y=680 $D=0
M5 VDD A ZN VDD PMOS_VTL L=5e-08 W=6.3e-07 AD=6.615e-14 AS=8.82e-14 PD=1.47e-06 PS=1.54e-06 $X=550 $Y=680 $D=0
.ENDS
***************************************
.SUBCKT ICV_25
** N=2 EP=0 IP=2 FDC=0
.ENDS
***************************************
.SUBCKT ICV_26
** N=1 EP=0 IP=2 FDC=0
.ENDS
***************************************
.SUBCKT ICV_27 1 2 3 4 5
** N=5 EP=5 IP=9 FDC=6
X1 3 4 1 2 5 1 AND2_X1 $T=190 0 0 0 $X=75 $Y=-115
.ENDS
***************************************
.SUBCKT ICV_28 1 2 3 4 5 6
** N=6 EP=6 IP=9 FDC=6
X1 3 4 1 2 5 6 AND2_X1 $T=950 0 1 180 $X=75 $Y=-115
.ENDS
***************************************
.SUBCKT ICV_29
** N=1 EP=0 IP=2 FDC=0
.ENDS
***************************************
.SUBCKT ICV_30
** N=2 EP=0 IP=2 FDC=0
.ENDS
***************************************
.SUBCKT ICV_31
** N=1 EP=0 IP=2 FDC=0
.ENDS
***************************************
.SUBCKT DFF_X1 D CK VSS VDD Q 6
** N=21 EP=6 IP=0 FDC=28
M0 VSS 10 7 6 NMOS_VTL L=5e-08 W=2.1e-07 AD=2.1e-14 AS=2.205e-14 PD=7e-07 PS=6.3e-07 $X=160 $Y=180 $D=1
M1 18 9 VSS 6 NMOS_VTL L=5e-08 W=9e-08 AD=1.26e-14 AS=2.1e-14 PD=4.6e-07 PS=7e-07 $X=350 $Y=300 $D=1
M2 8 7 18 6 NMOS_VTL L=5e-08 W=9e-08 AD=2.6e-14 AS=1.26e-14 PD=8.4e-07 PS=4.6e-07 $X=540 $Y=300 $D=1
M3 19 10 8 6 NMOS_VTL L=5e-08 W=2.75e-07 AD=3.85e-14 AS=2.6e-14 PD=8.3e-07 PS=8.4e-07 $X=735 $Y=180 $D=1
M4 VSS D 19 6 NMOS_VTL L=5e-08 W=2.75e-07 AD=3.395e-14 AS=3.85e-14 PD=8.3e-07 PS=8.3e-07 $X=925 $Y=180 $D=1
M5 9 8 VSS 6 NMOS_VTL L=5e-08 W=2.1e-07 AD=2.205e-14 AS=3.395e-14 PD=6.3e-07 PS=8.3e-07 $X=1115 $Y=180 $D=1
M6 VSS CK 10 6 NMOS_VTL L=5e-08 W=2.1e-07 AD=2.94e-14 AS=2.205e-14 PD=7e-07 PS=6.3e-07 $X=1530 $Y=255 $D=1
M7 20 8 VSS 6 NMOS_VTL L=5e-08 W=2.1e-07 AD=2.94e-14 AS=2.94e-14 PD=7e-07 PS=7e-07 $X=1720 $Y=255 $D=1
M8 11 7 20 6 NMOS_VTL L=5e-08 W=2.1e-07 AD=2.1e-14 AS=2.94e-14 PD=7e-07 PS=7e-07 $X=1910 $Y=255 $D=1
M9 21 10 11 6 NMOS_VTL L=5e-08 W=9e-08 AD=1.305e-14 AS=2.1e-14 PD=4.7e-07 PS=7e-07 $X=2100 $Y=300 $D=1
M10 VSS 13 21 6 NMOS_VTL L=5e-08 W=9e-08 AD=2.1e-14 AS=1.305e-14 PD=7e-07 PS=4.7e-07 $X=2295 $Y=300 $D=1
M11 13 11 VSS 6 NMOS_VTL L=5e-08 W=2.1e-07 AD=2.205e-14 AS=2.1e-14 PD=6.3e-07 PS=7e-07 $X=2485 $Y=255 $D=1
M12 VSS 11 QN 6 NMOS_VTL L=5e-08 W=4.15e-07 AD=5.81e-14 AS=4.3575e-14 PD=1.11e-06 PS=1.04e-06 $X=2825 $Y=90 $D=1
M13 Q 13 VSS 6 NMOS_VTL L=5e-08 W=4.15e-07 AD=4.3575e-14 AS=5.81e-14 PD=1.04e-06 PS=1.11e-06 $X=3015 $Y=90 $D=1
M14 VDD 10 7 VDD PMOS_VTL L=5e-08 W=3.15e-07 AD=2.835e-14 AS=3.3075e-14 PD=9.1e-07 PS=8.4e-07 $X=160 $Y=785 $D=0
M15 14 9 VDD VDD PMOS_VTL L=5e-08 W=9e-08 AD=1.26e-14 AS=2.835e-14 PD=4.6e-07 PS=9.1e-07 $X=350 $Y=1010 $D=0
M16 8 10 14 VDD PMOS_VTL L=5e-08 W=9e-08 AD=3.615e-14 AS=1.26e-14 PD=1.13e-06 PS=4.6e-07 $X=540 $Y=1010 $D=0
M17 15 7 8 VDD PMOS_VTL L=5e-08 W=4.2e-07 AD=5.88e-14 AS=3.615e-14 PD=1.12e-06 PS=1.13e-06 $X=735 $Y=765 $D=0
M18 VDD D 15 VDD PMOS_VTL L=5e-08 W=4.2e-07 AD=5.145e-14 AS=5.88e-14 PD=1.12e-06 PS=1.12e-06 $X=925 $Y=765 $D=0
M19 9 8 VDD VDD PMOS_VTL L=5e-08 W=3.15e-07 AD=5.67e-14 AS=5.145e-14 PD=9.9e-07 PS=1.12e-06 $X=1115 $Y=870 $D=0
M20 VDD CK 10 VDD PMOS_VTL L=5e-08 W=3.15e-07 AD=4.41e-14 AS=3.3075e-14 PD=9.1e-07 PS=8.4e-07 $X=1530 $Y=870 $D=0
M21 16 8 VDD VDD PMOS_VTL L=5e-08 W=3.15e-07 AD=4.41e-14 AS=4.41e-14 PD=9.1e-07 PS=9.1e-07 $X=1720 $Y=870 $D=0
M22 11 10 16 VDD PMOS_VTL L=5e-08 W=3.15e-07 AD=2.835e-14 AS=4.41e-14 PD=9.1e-07 PS=9.1e-07 $X=1910 $Y=870 $D=0
M23 17 7 11 VDD PMOS_VTL L=5e-08 W=9e-08 AD=1.305e-14 AS=2.835e-14 PD=4.7e-07 PS=9.1e-07 $X=2100 $Y=1095 $D=0
M24 VDD 13 17 VDD PMOS_VTL L=5e-08 W=9e-08 AD=2.835e-14 AS=1.305e-14 PD=9.1e-07 PS=4.7e-07 $X=2295 $Y=1095 $D=0
M25 13 11 VDD VDD PMOS_VTL L=5e-08 W=3.15e-07 AD=3.3075e-14 AS=2.835e-14 PD=8.4e-07 PS=9.1e-07 $X=2485 $Y=870 $D=0
M26 VDD 11 QN VDD PMOS_VTL L=5e-08 W=6.3e-07 AD=8.82e-14 AS=6.615e-14 PD=1.54e-06 PS=1.47e-06 $X=2825 $Y=680 $D=0
M27 Q 13 VDD VDD PMOS_VTL L=5e-08 W=6.3e-07 AD=6.615e-14 AS=8.82e-14 PD=1.47e-06 PS=1.54e-06 $X=3015 $Y=680 $D=0
.ENDS
***************************************
.SUBCKT ICV_32
** N=3 EP=0 IP=6 FDC=0
.ENDS
***************************************
.SUBCKT ICV_33
** N=3 EP=0 IP=6 FDC=0
.ENDS
***************************************
.SUBCKT ICV_34 1 2 3 4 5 6
** N=6 EP=6 IP=9 FDC=28
X1 3 4 1 2 5 6 DFF_X1 $T=190 0 0 0 $X=75 $Y=-115
.ENDS
***************************************
.SUBCKT NAND2_X1 A2 VSS A1 ZN VDD
** N=6 EP=5 IP=0 FDC=4
M0 6 A2 VSS VSS NMOS_VTL L=5e-08 W=4.15e-07 AD=5.81e-14 AS=4.3575e-14 PD=1.11e-06 PS=1.04e-06 $X=160 $Y=90 $D=1
M1 ZN A1 6 VSS NMOS_VTL L=5e-08 W=4.15e-07 AD=4.3575e-14 AS=5.81e-14 PD=1.04e-06 PS=1.11e-06 $X=350 $Y=90 $D=1
M2 ZN A2 VDD VDD PMOS_VTL L=5e-08 W=6.3e-07 AD=8.82e-14 AS=6.615e-14 PD=1.54e-06 PS=1.47e-06 $X=160 $Y=680 $D=0
M3 VDD A1 ZN VDD PMOS_VTL L=5e-08 W=6.3e-07 AD=6.615e-14 AS=8.82e-14 PD=1.47e-06 PS=1.54e-06 $X=350 $Y=680 $D=0
.ENDS
***************************************
.SUBCKT ICV_35
** N=2 EP=0 IP=6 FDC=0
.ENDS
***************************************
.SUBCKT ICV_36
** N=2 EP=0 IP=2 FDC=0
.ENDS
***************************************
.SUBCKT FILLCELL_X16
** N=2 EP=0 IP=0 FDC=0
*.CALIBRE ISOLATED NETS: VSS VDD
.ENDS
***************************************
.SUBCKT MGC_via1_2x1_VH
** N=1 EP=0 IP=0 FDC=0
.ENDS
***************************************
.SUBCKT ICV_37
** N=1 EP=0 IP=2 FDC=0
.ENDS
***************************************
.SUBCKT via1_7
** N=1 EP=0 IP=0 FDC=0
.ENDS
***************************************
.SUBCKT ICV_38
** N=2 EP=0 IP=6 FDC=0
.ENDS
***************************************
.SUBCKT ICV_39 1 2 3 4
** N=4 EP=4 IP=7 FDC=2
X0 1 2 3 4 INV_X1 $T=0 0 0 0 $X=-115 $Y=-115
.ENDS
***************************************
.SUBCKT OR2_X1 A1 A2 VSS VDD ZN
** N=7 EP=5 IP=0 FDC=6
M0 6 A1 VSS VSS NMOS_VTL L=5e-08 W=2.1e-07 AD=2.94e-14 AS=2.205e-14 PD=7e-07 PS=6.3e-07 $X=145 $Y=90 $D=1
M1 VSS A2 6 VSS NMOS_VTL L=5e-08 W=2.1e-07 AD=4.375e-14 AS=2.94e-14 PD=1.11e-06 PS=7e-07 $X=335 $Y=90 $D=1
M2 ZN 6 VSS VSS NMOS_VTL L=5e-08 W=4.15e-07 AD=4.3575e-14 AS=4.375e-14 PD=1.04e-06 PS=1.11e-06 $X=525 $Y=90 $D=1
M3 7 A1 6 VDD PMOS_VTL L=5e-08 W=3.15e-07 AD=4.41e-14 AS=3.3075e-14 PD=9.1e-07 PS=8.4e-07 $X=145 $Y=995 $D=0
M4 VDD A2 7 VDD PMOS_VTL L=5e-08 W=3.15e-07 AD=6.615e-14 AS=4.41e-14 PD=1.54e-06 PS=9.1e-07 $X=335 $Y=995 $D=0
M5 ZN 6 VDD VDD PMOS_VTL L=5e-08 W=6.3e-07 AD=6.615e-14 AS=6.615e-14 PD=1.47e-06 PS=1.54e-06 $X=525 $Y=680 $D=0
.ENDS
***************************************
.SUBCKT ICV_40
** N=2 EP=0 IP=5 FDC=0
.ENDS
***************************************
.SUBCKT ICV_41
** N=1 EP=0 IP=2 FDC=0
.ENDS
***************************************
.SUBCKT ICV_42
** N=1 EP=0 IP=2 FDC=0
.ENDS
***************************************
.SUBCKT ICV_43
** N=1 EP=0 IP=2 FDC=0
.ENDS
***************************************
.SUBCKT ICV_44
** N=1 EP=0 IP=2 FDC=0
.ENDS
***************************************
.SUBCKT ICV_45
** N=1 EP=0 IP=2 FDC=0
.ENDS
***************************************
.SUBCKT ICV_46
** N=2 EP=0 IP=2 FDC=0
.ENDS
***************************************
.SUBCKT ICV_47
** N=2 EP=0 IP=2 FDC=0
.ENDS
***************************************
.SUBCKT AOI222_X1 C2 C1 VDD B1 B2 A2 VSS A1 ZN
** N=14 EP=9 IP=0 FDC=12
M0 12 C2 VSS VSS NMOS_VTL L=5e-08 W=4.15e-07 AD=5.81e-14 AS=4.3575e-14 PD=1.11e-06 PS=1.04e-06 $X=145 $Y=90 $D=1
M1 ZN C1 12 VSS NMOS_VTL L=5e-08 W=4.15e-07 AD=1.2035e-13 AS=5.81e-14 PD=1.41e-06 PS=1.11e-06 $X=335 $Y=90 $D=1
M2 13 B1 ZN VSS NMOS_VTL L=5e-08 W=4.15e-07 AD=5.81e-14 AS=1.2035e-13 PD=1.11e-06 PS=1.41e-06 $X=675 $Y=90 $D=1
M3 VSS B2 13 VSS NMOS_VTL L=5e-08 W=4.15e-07 AD=5.81e-14 AS=5.81e-14 PD=1.11e-06 PS=1.11e-06 $X=865 $Y=90 $D=1
M4 14 A2 VSS VSS NMOS_VTL L=5e-08 W=4.15e-07 AD=5.81e-14 AS=5.81e-14 PD=1.11e-06 PS=1.11e-06 $X=1055 $Y=90 $D=1
M5 ZN A1 14 VSS NMOS_VTL L=5e-08 W=4.15e-07 AD=4.3575e-14 AS=5.81e-14 PD=1.04e-06 PS=1.11e-06 $X=1245 $Y=90 $D=1
M6 10 C2 VDD VDD PMOS_VTL L=5e-08 W=6.3e-07 AD=8.82e-14 AS=6.615e-14 PD=1.54e-06 PS=1.47e-06 $X=145 $Y=680 $D=0
M7 VDD C1 10 VDD PMOS_VTL L=5e-08 W=6.3e-07 AD=6.615e-14 AS=8.82e-14 PD=1.47e-06 PS=1.54e-06 $X=335 $Y=680 $D=0
M8 10 B1 11 VDD PMOS_VTL L=5e-08 W=6.3e-07 AD=8.82e-14 AS=6.615e-14 PD=1.54e-06 PS=1.47e-06 $X=675 $Y=680 $D=0
M9 11 B2 10 VDD PMOS_VTL L=5e-08 W=6.3e-07 AD=8.82e-14 AS=8.82e-14 PD=1.54e-06 PS=1.54e-06 $X=865 $Y=680 $D=0
M10 ZN A2 11 VDD PMOS_VTL L=5e-08 W=6.3e-07 AD=8.82e-14 AS=8.82e-14 PD=1.54e-06 PS=1.54e-06 $X=1055 $Y=680 $D=0
M11 11 A1 ZN VDD PMOS_VTL L=5e-08 W=6.3e-07 AD=6.615e-14 AS=8.82e-14 PD=1.47e-06 PS=1.54e-06 $X=1245 $Y=680 $D=0
.ENDS
***************************************
.SUBCKT ICV_48
** N=1 EP=0 IP=2 FDC=0
.ENDS
***************************************
.SUBCKT ICV_49
** N=1 EP=0 IP=2 FDC=0
.ENDS
***************************************
.SUBCKT ICV_50
** N=2 EP=0 IP=2 FDC=0
.ENDS
***************************************
.SUBCKT MGC_via1_1x2_VH
** N=1 EP=0 IP=0 FDC=0
.ENDS
***************************************
.SUBCKT OAI221_X1 B2 B1 VSS A C2 VDD C1 ZN
** N=12 EP=8 IP=0 FDC=10
M0 VSS B2 9 VSS NMOS_VTL L=5e-08 W=4.15e-07 AD=5.81e-14 AS=4.3575e-14 PD=1.11e-06 PS=1.04e-06 $X=145 $Y=90 $D=1
M1 9 B1 VSS VSS NMOS_VTL L=5e-08 W=4.15e-07 AD=5.81e-14 AS=5.81e-14 PD=1.11e-06 PS=1.11e-06 $X=335 $Y=90 $D=1
M2 10 A 9 VSS NMOS_VTL L=5e-08 W=4.15e-07 AD=5.81e-14 AS=5.81e-14 PD=1.11e-06 PS=1.11e-06 $X=525 $Y=90 $D=1
M3 ZN C2 10 VSS NMOS_VTL L=5e-08 W=4.15e-07 AD=5.81e-14 AS=5.81e-14 PD=1.11e-06 PS=1.11e-06 $X=715 $Y=90 $D=1
M4 10 C1 ZN VSS NMOS_VTL L=5e-08 W=4.15e-07 AD=4.3575e-14 AS=5.81e-14 PD=1.04e-06 PS=1.11e-06 $X=905 $Y=90 $D=1
M5 11 B2 VDD VDD PMOS_VTL L=5e-08 W=6.3e-07 AD=8.82e-14 AS=6.615e-14 PD=1.54e-06 PS=1.47e-06 $X=145 $Y=680 $D=0
M6 ZN B1 11 VDD PMOS_VTL L=5e-08 W=6.3e-07 AD=8.82e-14 AS=8.82e-14 PD=1.54e-06 PS=1.54e-06 $X=335 $Y=680 $D=0
M7 VDD A ZN VDD PMOS_VTL L=5e-08 W=6.3e-07 AD=8.82e-14 AS=8.82e-14 PD=1.54e-06 PS=1.54e-06 $X=525 $Y=680 $D=0
M8 12 C2 VDD VDD PMOS_VTL L=5e-08 W=6.3e-07 AD=8.82e-14 AS=8.82e-14 PD=1.54e-06 PS=1.54e-06 $X=715 $Y=680 $D=0
M9 ZN C1 12 VDD PMOS_VTL L=5e-08 W=6.3e-07 AD=6.615e-14 AS=8.82e-14 PD=1.47e-06 PS=1.54e-06 $X=905 $Y=680 $D=0
.ENDS
***************************************
.SUBCKT ICV_51
** N=1 EP=0 IP=2 FDC=0
.ENDS
***************************************
.SUBCKT OAI22_X1 B2 B1 VSS ZN A1 A2 VDD
** N=10 EP=7 IP=0 FDC=8
M0 VSS B2 8 VSS NMOS_VTL L=5e-08 W=4.15e-07 AD=5.81e-14 AS=4.3575e-14 PD=1.11e-06 PS=1.04e-06 $X=160 $Y=90 $D=1
M1 8 B1 VSS VSS NMOS_VTL L=5e-08 W=4.15e-07 AD=5.81e-14 AS=5.81e-14 PD=1.11e-06 PS=1.11e-06 $X=350 $Y=90 $D=1
M2 ZN A1 8 VSS NMOS_VTL L=5e-08 W=4.15e-07 AD=5.81e-14 AS=5.81e-14 PD=1.11e-06 PS=1.11e-06 $X=540 $Y=90 $D=1
M3 8 A2 ZN VSS NMOS_VTL L=5e-08 W=4.15e-07 AD=4.3575e-14 AS=5.81e-14 PD=1.04e-06 PS=1.11e-06 $X=730 $Y=90 $D=1
M4 9 B2 VDD VDD PMOS_VTL L=5e-08 W=6.3e-07 AD=8.82e-14 AS=6.615e-14 PD=1.54e-06 PS=1.47e-06 $X=160 $Y=680 $D=0
M5 ZN B1 9 VDD PMOS_VTL L=5e-08 W=6.3e-07 AD=8.82e-14 AS=8.82e-14 PD=1.54e-06 PS=1.54e-06 $X=350 $Y=680 $D=0
M6 10 A1 ZN VDD PMOS_VTL L=5e-08 W=6.3e-07 AD=8.82e-14 AS=8.82e-14 PD=1.54e-06 PS=1.54e-06 $X=540 $Y=680 $D=0
M7 VDD A2 10 VDD PMOS_VTL L=5e-08 W=6.3e-07 AD=6.615e-14 AS=8.82e-14 PD=1.47e-06 PS=1.54e-06 $X=730 $Y=680 $D=0
.ENDS
***************************************
.SUBCKT ICV_52
** N=2 EP=0 IP=2 FDC=0
.ENDS
***************************************
.SUBCKT MGC_via2_1x2_HV
** N=1 EP=0 IP=0 FDC=0
.ENDS
***************************************
.SUBCKT ICV_53 1 2 3 4
** N=4 EP=4 IP=7 FDC=2
X0 1 2 3 4 INV_X1 $T=380 0 0 0 $X=265 $Y=-115
.ENDS
***************************************
.SUBCKT ICV_54
** N=2 EP=0 IP=2 FDC=0
.ENDS
***************************************
.SUBCKT ICV_55 1 2 3 4 5 6 7 8 9 10 11 12
** N=12 EP=12 IP=14 FDC=16
X0 1 2 3 4 5 6 7 AOI22_X1 $T=0 0 0 0 $X=-115 $Y=-115
X1 8 9 3 10 11 12 7 AOI22_X1 $T=950 0 0 0 $X=835 $Y=-115
.ENDS
***************************************
.SUBCKT ICV_56
** N=2 EP=0 IP=2 FDC=0
.ENDS
***************************************
.SUBCKT ICV_57 1 2 3 4 5
** N=5 EP=5 IP=8 FDC=4
X1 3 1 4 5 2 NAND2_X1 $T=190 0 0 0 $X=75 $Y=-115
.ENDS
***************************************
.SUBCKT FILLCELL_X32
** N=2 EP=0 IP=0 FDC=0
*.CALIBRE ISOLATED NETS: VSS VDD
.ENDS
***************************************
.SUBCKT ICV_58 1 2 3 4 5 6 7
** N=7 EP=7 IP=10 FDC=8
X1 3 4 2 5 6 7 1 AOI22_X1 $T=190 0 0 0 $X=75 $Y=-115
.ENDS
***************************************
.SUBCKT ICV_59
** N=1 EP=0 IP=2 FDC=0
.ENDS
***************************************
.SUBCKT MGC_via1_2x1_HH
** N=1 EP=0 IP=0 FDC=0
.ENDS
***************************************
.SUBCKT ICV_60
** N=2 EP=0 IP=2 FDC=0
.ENDS
***************************************
.SUBCKT ICV_61
** N=2 EP=0 IP=2 FDC=0
.ENDS
***************************************
.SUBCKT ICV_62
** N=2 EP=0 IP=2 FDC=0
.ENDS
***************************************
.SUBCKT ICV_63
** N=1 EP=0 IP=2 FDC=0
.ENDS
***************************************
.SUBCKT OAI211_X1 C2 C1 A VDD B ZN VSS
** N=10 EP=7 IP=0 FDC=8
M0 ZN C2 8 VSS NMOS_VTL L=5e-08 W=4.15e-07 AD=5.81e-14 AS=4.3575e-14 PD=1.11e-06 PS=1.04e-06 $X=185 $Y=90 $D=1
M1 8 C1 ZN VSS NMOS_VTL L=5e-08 W=4.15e-07 AD=5.81e-14 AS=5.81e-14 PD=1.11e-06 PS=1.11e-06 $X=375 $Y=90 $D=1
M2 10 A 8 VSS NMOS_VTL L=5e-08 W=4.15e-07 AD=5.81e-14 AS=5.81e-14 PD=1.11e-06 PS=1.11e-06 $X=565 $Y=90 $D=1
M3 VSS B 10 VSS NMOS_VTL L=5e-08 W=4.15e-07 AD=4.3575e-14 AS=5.81e-14 PD=1.04e-06 PS=1.11e-06 $X=755 $Y=90 $D=1
M4 9 C2 VDD VDD PMOS_VTL L=5e-08 W=6.3e-07 AD=8.82e-14 AS=6.615e-14 PD=1.54e-06 PS=1.47e-06 $X=185 $Y=680 $D=0
M5 ZN C1 9 VDD PMOS_VTL L=5e-08 W=6.3e-07 AD=8.82e-14 AS=8.82e-14 PD=1.54e-06 PS=1.54e-06 $X=375 $Y=680 $D=0
M6 VDD A ZN VDD PMOS_VTL L=5e-08 W=6.3e-07 AD=8.82e-14 AS=8.82e-14 PD=1.54e-06 PS=1.54e-06 $X=565 $Y=680 $D=0
M7 ZN B VDD VDD PMOS_VTL L=5e-08 W=6.3e-07 AD=6.615e-14 AS=8.82e-14 PD=1.47e-06 PS=1.54e-06 $X=755 $Y=680 $D=0
.ENDS
***************************************
.SUBCKT AOI221_X1 B2 B1 VDD A C2 VSS C1 ZN
** N=12 EP=8 IP=0 FDC=10
M0 11 B2 VSS VSS NMOS_VTL L=5e-08 W=4.15e-07 AD=5.81e-14 AS=4.3575e-14 PD=1.11e-06 PS=1.04e-06 $X=145 $Y=90 $D=1
M1 ZN B1 11 VSS NMOS_VTL L=5e-08 W=4.15e-07 AD=5.81e-14 AS=5.81e-14 PD=1.11e-06 PS=1.11e-06 $X=335 $Y=90 $D=1
M2 VSS A ZN VSS NMOS_VTL L=5e-08 W=4.15e-07 AD=5.81e-14 AS=5.81e-14 PD=1.11e-06 PS=1.11e-06 $X=525 $Y=90 $D=1
M3 12 C2 VSS VSS NMOS_VTL L=5e-08 W=4.15e-07 AD=5.81e-14 AS=5.81e-14 PD=1.11e-06 PS=1.11e-06 $X=715 $Y=90 $D=1
M4 ZN C1 12 VSS NMOS_VTL L=5e-08 W=4.15e-07 AD=4.3575e-14 AS=5.81e-14 PD=1.04e-06 PS=1.11e-06 $X=905 $Y=90 $D=1
M5 VDD B2 9 VDD PMOS_VTL L=5e-08 W=6.3e-07 AD=8.82e-14 AS=6.615e-14 PD=1.54e-06 PS=1.47e-06 $X=145 $Y=680 $D=0
M6 9 B1 VDD VDD PMOS_VTL L=5e-08 W=6.3e-07 AD=8.82e-14 AS=8.82e-14 PD=1.54e-06 PS=1.54e-06 $X=335 $Y=680 $D=0
M7 10 A 9 VDD PMOS_VTL L=5e-08 W=6.3e-07 AD=8.82e-14 AS=8.82e-14 PD=1.54e-06 PS=1.54e-06 $X=525 $Y=680 $D=0
M8 ZN C2 10 VDD PMOS_VTL L=5e-08 W=6.3e-07 AD=8.82e-14 AS=8.82e-14 PD=1.54e-06 PS=1.54e-06 $X=715 $Y=680 $D=0
M9 10 C1 ZN VDD PMOS_VTL L=5e-08 W=6.3e-07 AD=6.615e-14 AS=8.82e-14 PD=1.47e-06 PS=1.54e-06 $X=905 $Y=680 $D=0
.ENDS
***************************************
.SUBCKT ICV_64 1 2 3 4 5 6 7 8 9
** N=9 EP=9 IP=11 FDC=10
X0 1 2 3 4 5 6 OAI21_X1 $T=0 0 0 0 $X=-115 $Y=-115
X1 7 5 8 9 6 NAND2_X1 $T=1330 0 1 180 $X=645 $Y=-115
.ENDS
***************************************
.SUBCKT MGC_via2_2x1_VH
** N=1 EP=0 IP=0 FDC=0
.ENDS
***************************************
.SUBCKT ICV_65
** N=2 EP=0 IP=2 FDC=0
.ENDS
***************************************
.SUBCKT ICV_66
** N=2 EP=0 IP=2 FDC=0
.ENDS
***************************************
.SUBCKT ICV_67
** N=1 EP=0 IP=2 FDC=0
.ENDS
***************************************
.SUBCKT ICV_68
** N=2 EP=0 IP=2 FDC=0
.ENDS
***************************************
.SUBCKT NAND4_X1 A4 VSS A3 A2 A1 ZN VDD
** N=10 EP=7 IP=0 FDC=8
M0 8 A4 VSS VSS NMOS_VTL L=5e-08 W=4.15e-07 AD=5.81e-14 AS=4.3575e-14 PD=1.11e-06 PS=1.04e-06 $X=145 $Y=90 $D=1
M1 9 A3 8 VSS NMOS_VTL L=5e-08 W=4.15e-07 AD=5.81e-14 AS=5.81e-14 PD=1.11e-06 PS=1.11e-06 $X=335 $Y=90 $D=1
M2 10 A2 9 VSS NMOS_VTL L=5e-08 W=4.15e-07 AD=5.81e-14 AS=5.81e-14 PD=1.11e-06 PS=1.11e-06 $X=525 $Y=90 $D=1
M3 ZN A1 10 VSS NMOS_VTL L=5e-08 W=4.15e-07 AD=4.3575e-14 AS=5.81e-14 PD=1.04e-06 PS=1.11e-06 $X=715 $Y=90 $D=1
M4 ZN A4 VDD VDD PMOS_VTL L=5e-08 W=6.3e-07 AD=8.82e-14 AS=6.615e-14 PD=1.54e-06 PS=1.47e-06 $X=145 $Y=680 $D=0
M5 VDD A3 ZN VDD PMOS_VTL L=5e-08 W=6.3e-07 AD=8.82e-14 AS=8.82e-14 PD=1.54e-06 PS=1.54e-06 $X=335 $Y=680 $D=0
M6 ZN A2 VDD VDD PMOS_VTL L=5e-08 W=6.3e-07 AD=8.82e-14 AS=8.82e-14 PD=1.54e-06 PS=1.54e-06 $X=525 $Y=680 $D=0
M7 VDD A1 ZN VDD PMOS_VTL L=5e-08 W=6.3e-07 AD=6.615e-14 AS=8.82e-14 PD=1.47e-06 PS=1.54e-06 $X=715 $Y=680 $D=0
.ENDS
***************************************
.SUBCKT ICV_69
** N=1 EP=0 IP=2 FDC=0
.ENDS
***************************************
.SUBCKT ICV_70
** N=2 EP=0 IP=2 FDC=0
.ENDS
***************************************
.SUBCKT NOR3_X1 A3 VDD A2 A1 VSS ZN
** N=8 EP=6 IP=0 FDC=6
M0 ZN A3 VSS VSS NMOS_VTL L=5e-08 W=4.15e-07 AD=5.81e-14 AS=4.3575e-14 PD=1.11e-06 PS=1.04e-06 $X=145 $Y=90 $D=1
M1 VSS A2 ZN VSS NMOS_VTL L=5e-08 W=4.15e-07 AD=5.81e-14 AS=5.81e-14 PD=1.11e-06 PS=1.11e-06 $X=335 $Y=90 $D=1
M2 ZN A1 VSS VSS NMOS_VTL L=5e-08 W=4.15e-07 AD=4.3575e-14 AS=5.81e-14 PD=1.04e-06 PS=1.11e-06 $X=525 $Y=90 $D=1
M3 7 A3 VDD VDD PMOS_VTL L=5e-08 W=6.3e-07 AD=8.82e-14 AS=6.615e-14 PD=1.54e-06 PS=1.47e-06 $X=145 $Y=680 $D=0
M4 8 A2 7 VDD PMOS_VTL L=5e-08 W=6.3e-07 AD=8.82e-14 AS=8.82e-14 PD=1.54e-06 PS=1.54e-06 $X=335 $Y=680 $D=0
M5 ZN A1 8 VDD PMOS_VTL L=5e-08 W=6.3e-07 AD=6.615e-14 AS=8.82e-14 PD=1.47e-06 PS=1.54e-06 $X=525 $Y=680 $D=0
.ENDS
***************************************
.SUBCKT ICV_71
** N=2 EP=0 IP=2 FDC=0
.ENDS
***************************************
.SUBCKT ICV_72 1 2 3 4 5 6 7 8
** N=8 EP=8 IP=12 FDC=56
X0 1 2 3 4 5 3 DFF_X1 $T=0 0 0 0 $X=-115 $Y=-115
X1 6 7 3 4 8 3 DFF_X1 $T=3230 0 0 0 $X=3115 $Y=-115
.ENDS
***************************************